* NGSPICE file created from LIF_comp.ext - technology: gf180mcuD

.subckt LIF_comp_pex vdd vss vin v_rew vout
X0 phaseUpulse_0.refractory_0.ota_1stage$1_0.vp phaseUpulse_0.refractory_0.ota_1stage$1_0.vp vss.t2 vss.t1 nfet_03v3 ad=9.15p pd=31.22u as=9.15p ps=31.22u w=15u l=0.28u
X1 phaseUpulse_0.refractory_0.ota_1stage$1_0.vn phaseUpulse_0.refractory_0.ota_1stage$1_0.vn phaseUpulse_0.vrefrac vss.t10 nfet_03v3 ad=0.305p pd=2.22u as=0.305p ps=2.22u w=0.5u l=0.5u
X2 a_n1388_602# ota_1stage$2_0.vout vss.t15 vss.t14 nfet_03v3 ad=0.4p pd=1.8u as=0.61p ps=3.22u w=1u l=0.28u
X3 vspike a_3544_2068# v_ref vdd.t50 pfet_03v3 ad=0.65p pd=3.3u as=0.65p ps=3.3u w=1u l=0.35u
X4 a_1251_6917# phaseUpulse_0.vspike_up phaseUpulse_0.vspike_up vss.t8 nfet_03v3 ad=0.228p pd=1.98u as=0.228p ps=1.98u w=0.36u l=0.28u
X5 vss.t31 v_rew.t0 a_n872_2246# vss.t30 nfet_03v3 ad=0.61p pd=3.22u as=0.61p ps=3.22u w=1u l=0.28u
X6 vspike a_2248_2068# phaseUpulse_0.vrefrac vdd.t51 pfet_03v3 ad=0.65p pd=3.3u as=0.65p ps=3.3u w=1u l=0.35u
X7 vss.t29 a_4045_8037# a_2583_8169# vss.t27 nfet_03v3 ad=0.5124p pd=2.9u as=0.5124p ps=2.9u w=0.84u l=0.28u
X8 a_3790_4625# a_3790_4625# vss.t39 vss.t37 nfet_03v3 ad=0.5124p pd=2.9u as=0.5124p ps=2.9u w=0.84u l=0.28u
X9 a_2583_8169# v_th ota_1stage$2_0.vout vss.t85 nfet_03v3 ad=1.8788p pd=7.38u as=1.8788p ps=7.38u w=3.08u l=0.28u
X10 vss.t77 v_ref v_ref vss.t76 nfet_03v3 ad=0.228p pd=1.98u as=0.228p ps=1.98u w=0.36u l=0.28u
X11 phaseUpulse_0.vneg phaseUpulse_0.monostable_0.not$1_3.in vdd.t2 vdd.t1 pfet_03v3 ad=0.65p pd=3.3u as=0.65p ps=3.3u w=1u l=0.35u
X12 vdd.t33 vdd.t32 a_6164_1900# vss.t63 nfet_03v3 ad=0.228p pd=1.98u as=0.228p ps=1.98u w=0.36u l=8.54u
X13 phaseUpulse_0.phi_2 phaseUpulse_0.monostable_0.not$1_0.in vdd.t57 vdd.t56 pfet_03v3 ad=0.65p pd=3.3u as=0.65p ps=3.3u w=1u l=0.35u
X14 vdd.t55 phaseUpulse_0.monostable_0.not$1_0.in phaseUpulse_0.monostable_0.nand$1_0.Z vdd.t54 pfet_03v3 ad=0.65p pd=3.3u as=0.42p ps=1.84u w=1u l=0.28u
X15 vss.t62 phaseUpulse_0.phi_2 a_2248_2068# vss.t61 nfet_03v3 ad=0.61p pd=3.22u as=0.61p ps=3.22u w=1u l=0.28u
X16 vin.t0 a_8811_n132# vmem.t1 vdd.t0 pfet_03v3 ad=0.65p pd=3.3u as=0.65p ps=3.3u w=1u l=0.35u
X17 vss.t47 phi_fire.t2 a_8827_1078# vss.t46 nfet_03v3 ad=0.61p pd=3.22u as=0.61p ps=3.22u w=1u l=0.28u
X18 vss.t26 phaseUpulse_0.phi_1 a_952_2068# vss.t25 nfet_03v3 ad=0.61p pd=3.22u as=0.61p ps=3.22u w=1u l=0.28u
X19 v_ref a_8827_1078# conmutator$1_2.out vdd.t44 pfet_03v3 ad=0.65p pd=3.3u as=0.65p ps=3.3u w=1u l=0.35u
X20 vdd.t19 v_rew.t1 a_n872_2246# vdd.t18 pfet_03v3 ad=0.65p pd=3.3u as=0.65p ps=3.3u w=1u l=0.35u
X21 vdd.t31 a_2266_6197# phaseUpulse_0.vrefrac vdd pfet_03v3 ad=0.546p pd=2.98u as=0.546p ps=2.98u w=0.84u l=0.28u
X22 a_4045_8037# a_4045_8037# vss.t28 vss.t27 nfet_03v3 ad=0.5124p pd=2.9u as=0.5124p ps=2.9u w=0.84u l=0.28u
X23 phaseUpulse_0.phi_1 phaseUpulse_0.vneg vdd.t24 vdd.t23 pfet_03v3 ad=0.65p pd=3.3u as=0.65p ps=3.3u w=1u l=0.35u
X24 v_ref a_9352_5200# vout.t1 vss.t32 nfet_03v3 ad=0.61p pd=3.22u as=0.61p ps=3.22u w=1u l=0.28u
X25 phaseUpulse_0.monostable_0.nand$1_0.Z phaseUpulse_0.phi_1 vdd.t17 vdd.t16 pfet_03v3 ad=0.42p pd=1.84u as=0.65p ps=3.3u w=1u l=0.28u
X26 a_7562_3851# a_7562_3851# vdd.t65 vdd.t64 pfet_03v3 ad=0.546p pd=2.98u as=0.546p ps=2.98u w=0.84u l=0.28u
X27 phaseUpulse_0.monostable_0.nand$1_0.Z phaseUpulse_0.monostable_0.not$1_1.in cap_mim_2f0_m4m5_noshield c_width=5u c_length=5u
X28 conmutator$1_2.out phi_fire.t3 vmem.t5 vdd.t0 pfet_03v3 ad=0.65p pd=3.3u as=0.65p ps=3.3u w=1u l=0.35u
X29 vdd.t22 phaseUpulse_0.vneg phaseUpulse_0.monostable_0.nand$1_1.Z vdd.t21 pfet_03v3 ad=0.65p pd=3.3u as=0.42p ps=1.84u w=1u l=0.28u
X30 vmem.t11 v_th vin.t2 vss.t84 nfet_03v3 ad=0.305p pd=2.22u as=0.305p ps=2.22u w=0.5u l=0.5u
X31 a_8190_3623# vmem.t9 cap_mim_2f0_m4m5_noshield c_width=9u c_length=9u
X32 v_ref phi_fire.t4 conmutator$1_2.out vss.t48 nfet_03v3 ad=0.61p pd=3.22u as=0.61p ps=3.22u w=1u l=0.28u
X33 vdd.t49 phaseUpulse_0.phi_2 a_2248_2068# vdd.t48 pfet_03v3 ad=0.65p pd=3.3u as=0.65p ps=3.3u w=1u l=0.35u
X34 vss.t73 phaseUpulse_0.phi_int a_3544_2068# vss.t72 nfet_03v3 ad=0.61p pd=3.22u as=0.61p ps=3.22u w=1u l=0.28u
X35 vdd.t43 a_2521_9609# ota_1stage$2_0.vout vdd pfet_03v3 ad=0.546p pd=2.98u as=0.546p ps=2.98u w=0.84u l=0.28u
X36 a_9352_5200# phi_fire.t5 vdd.t7 vdd.t6 pfet_03v3 ad=0.65p pd=3.3u as=0.65p ps=3.3u w=1u l=0.35u
X37 vin.t3 conmutator$1_2.out cap_mim_2f0_m4m5_noshield c_width=9u c_length=9u
X38 vspike phaseUpulse_0.phi_1 phaseUpulse_0.conmutator_0.out vss.t24 nfet_03v3 ad=0.61p pd=3.22u as=0.61p ps=3.22u w=1u l=0.28u
X39 vmem.t10 a_8190_3623# vdd.t46 vdd.t45 pfet_03v3 ad=1.092p pd=4.66u as=1.092p ps=4.66u w=1.68u l=0.28u
X40 vdd.t39 vdd.t38 a_3790_4625# vss.t56 nfet_03v3 ad=0.228p pd=1.98u as=0.228p ps=1.98u w=0.36u l=8.54u
X41 vdd.t15 phaseUpulse_0.phi_1 a_952_2068# vdd.t14 pfet_03v3 ad=0.65p pd=3.3u as=0.65p ps=3.3u w=1u l=0.35u
X42 phaseUpulse_0.conmutator_0.out v_rew.t2 phaseUpulse_0.vspike_up vdd.t52 pfet_03v3 ad=0.65p pd=3.3u as=0.65p ps=3.3u w=1u l=0.35u
X43 vss.t83 v_th phaseUpulse_0.monostable_0.not$1_3.in vss.t82 nfet_03v3 ad=0.61p pd=3.22u as=0.61p ps=3.22u w=1u l=0.3u
X44 phaseUpulse_0.monostable_0.nand$1_1.Z ota_1stage$2_0.vout vdd.t4 vdd.t3 pfet_03v3 ad=0.42p pd=1.84u as=0.65p ps=3.3u w=1u l=0.28u
X45 conmutator$1_0.out a_8075_5978# vmem.t2 vss.t17 nfet_03v3 ad=0.61p pd=3.22u as=0.61p ps=3.22u w=1u l=0.28u
X46 conmutator$1_2.out a_8827_1078# vmem.t8 vss.t57 nfet_03v3 ad=0.61p pd=3.22u as=0.61p ps=3.22u w=1u l=0.28u
X47 vdd.t37 vdd.t36 a_4045_8037# vss.t68 nfet_03v3 ad=0.228p pd=1.98u as=0.228p ps=1.98u w=0.36u l=8.54u
X48 vdd.t9 phi_fire.t6 a_8811_n132# vdd.t8 pfet_03v3 ad=0.65p pd=3.3u as=0.65p ps=3.3u w=1u l=0.35u
X49 phaseUpulse_0.phi_int phaseUpulse_0.phi_1 vss.t23 vss.t22 nfet_03v3 ad=0.4p pd=1.8u as=0.61p ps=3.22u w=1u l=0.28u
X50 phaseUpulse_0.vneg phaseUpulse_0.monostable_0.not$1_3.in vss.t12 vss.t11 nfet_03v3 ad=0.61p pd=3.22u as=0.61p ps=3.22u w=1u l=0.28u
X51 vspike phaseUpulse_0.phi_int v_ref vss.t71 nfet_03v3 ad=0.61p pd=3.22u as=0.61p ps=3.22u w=1u l=0.28u
X52 vss.t81 v_th phaseUpulse_0.monostable_0.not$1_1.in vss.t80 nfet_03v3 ad=0.61p pd=3.22u as=0.61p ps=3.22u w=1u l=0.3u
X53 a_7562_3851# vin.t4 a_6854_3116# vss.t54 nfet_03v3 ad=1.8788p pd=7.38u as=1.8788p ps=7.38u w=3.08u l=0.28u
X54 a_2328_4757# phaseUpulse_0.refractory_0.ota_1stage$1_0.vn phaseUpulse_0.vrefrac vss.t9 nfet_03v3 ad=1.8788p pd=7.38u as=1.8788p ps=7.38u w=3.08u l=0.28u
X55 phaseUpulse_0.refractory_0.ota_1stage$1_0.vp phaseUpulse_0.vneg phaseUpulse_0.vneg vss.t36 nfet_03v3 ad=0.228p pd=1.98u as=0.228p ps=1.98u w=0.36u l=13u
X56 vss.t79 v_th v_th vss.t78 nfet_03v3 ad=0.305p pd=2.22u as=0.305p ps=2.22u w=0.5u l=0.8u
X57 vspike phaseUpulse_0.phi_2 phaseUpulse_0.vrefrac vss.t9 nfet_03v3 ad=0.61p pd=3.22u as=0.61p ps=3.22u w=1u l=0.28u
X58 vdd.t61 phaseUpulse_0.phi_int a_3544_2068# vdd.t60 pfet_03v3 ad=0.65p pd=3.3u as=0.65p ps=3.3u w=1u l=0.35u
X59 phaseUpulse_0.phi_1 phaseUpulse_0.vneg vss.t35 vss.t34 nfet_03v3 ad=0.61p pd=3.22u as=0.61p ps=3.22u w=1u l=0.28u
X60 v_ref vdd.t40 vdd.t41 vss.t55 nfet_03v3 ad=0.3355p pd=2.32u as=0.3355p ps=2.32u w=0.55u l=0.28u
X61 a_6854_3116# a_6164_1900# vss.t7 vss.t3 nfet_03v3 ad=0.5124p pd=2.9u as=0.5124p ps=2.9u w=0.84u l=0.28u
X62 phaseUpulse_0.conmutator_0.out a_n872_2246# phaseUpulse_0.vspike_up vss.t86 nfet_03v3 ad=0.61p pd=3.22u as=0.61p ps=3.22u w=1u l=0.28u
X63 phaseUpulse_0.monostable_0.nand$1_1.Z phaseUpulse_0.monostable_0.not$1_3.in cap_mim_2f0_m4m5_noshield c_width=5u c_length=5u
X64 v_ref phi_fire.t7 vout.t3 vdd.t10 pfet_03v3 ad=0.65p pd=3.3u as=0.65p ps=3.3u w=1u l=0.35u
X65 phi_fire.t1 phaseUpulse_0.phi_int vdd.t59 vdd.t58 pfet_03v3 ad=0.65p pd=3.3u as=0.65p ps=3.3u w=1u l=0.35u
X66 a_1078_602# phaseUpulse_0.phi_1 vss.t21 vss.t20 nfet_03v3 ad=0.4p pd=1.8u as=0.61p ps=3.22u w=1u l=0.28u
X67 vdd.t30 a_2266_6197# a_2266_6197# vdd pfet_03v3 ad=0.546p pd=2.98u as=0.546p ps=2.98u w=0.84u l=0.28u
X68 vmem.t0 a_6164_1900# vss.t6 vss.t5 nfet_03v3 ad=0.3416p pd=2.34u as=0.3416p ps=2.34u w=0.56u l=0.28u
X69 vdd.t28 phi_fire.t8 a_8827_1078# vdd.t27 pfet_03v3 ad=0.65p pd=3.3u as=0.65p ps=3.3u w=1u l=0.35u
X70 vdd.t63 a_7562_3851# a_8190_3623# vdd.t62 pfet_03v3 ad=0.546p pd=2.98u as=0.546p ps=2.98u w=0.84u l=0.28u
X71 phaseUpulse_0.phi_int phaseUpulse_0.phi_2 a_3544_1172# vdd.t47 pfet_03v3 ad=0.65p pd=3.3u as=0.42p ps=1.84u w=1u l=0.28u
X72 conmutator$1_0.out phi_fire.t9 vmem.t4 vdd.t29 pfet_03v3 ad=0.65p pd=3.3u as=0.65p ps=3.3u w=1u l=0.35u
X73 a_6854_3116# vspike a_8190_3623# vss.t58 nfet_03v3 ad=1.8788p pd=7.38u as=1.8788p ps=7.38u w=3.08u l=0.28u
X74 vss.t4 a_6164_1900# a_6164_1900# vss.t3 nfet_03v3 ad=0.5124p pd=2.9u as=0.5124p ps=2.9u w=0.84u l=0.28u
X75 phaseUpulse_0.vspike_down a_1251_6917# a_1251_6917# vss.t19 nfet_03v3 ad=0.305p pd=2.22u as=0.305p ps=2.22u w=0.5u l=0.5u
X76 a_2583_8169# conmutator$1_0.out a_2521_9609# vss.t18 nfet_03v3 ad=1.8788p pd=7.38u as=1.8788p ps=7.38u w=3.08u l=0.28u
X77 vss.t45 phi_fire.t10 conmutator$1_0.out vss.t44 nfet_03v3 ad=0.61p pd=3.22u as=0.61p ps=3.22u w=1u l=0.28u
X78 vdd.t42 a_2521_9609# a_2521_9609# vdd pfet_03v3 ad=0.546p pd=2.98u as=0.546p ps=2.98u w=0.84u l=0.28u
X79 vss.t50 phi_fire.t11 a_8811_n132# vss.t49 nfet_03v3 ad=0.61p pd=3.22u as=0.61p ps=3.22u w=1u l=0.28u
X80 vdd.t53 v_rew.t3 phaseUpulse_0.conmutator_0.out vss.t64 nfet_03v3 ad=0.61p pd=3.22u as=0.61p ps=3.22u w=1u l=0.28u
X81 phaseUpulse_0.monostable_0.not$1_0.in phaseUpulse_0.monostable_0.not$1_1.in vdd.t67 vdd.t66 pfet_03v3 ad=0.65p pd=3.3u as=0.65p ps=3.3u w=1u l=0.35u
X82 a_3544_1172# phaseUpulse_0.phi_1 vdd.t13 vdd.t12 pfet_03v3 ad=0.42p pd=1.84u as=0.65p ps=3.3u w=1u l=0.28u
X83 vout.t2 phi_fire.t12 vmem.t6 vss.t51 nfet_03v3 ad=0.61p pd=3.22u as=0.61p ps=3.22u w=1u l=0.28u
X84 v_th phaseUpulse_0.vspike_down phaseUpulse_0.vspike_down vss.t13 nfet_03v3 ad=0.305p pd=2.22u as=0.305p ps=2.22u w=0.5u l=0.5u
X85 vin.t1 phi_fire.t13 vmem.t7 vss.t52 nfet_03v3 ad=0.61p pd=3.22u as=0.61p ps=3.22u w=1u l=0.28u
X86 phi_fire.t0 phaseUpulse_0.phi_int vss.t70 vss.t69 nfet_03v3 ad=0.61p pd=3.22u as=0.61p ps=3.22u w=1u l=0.28u
X87 vdd.t69 a_n872_2246# phaseUpulse_0.conmutator_0.out vdd.t68 pfet_03v3 ad=0.65p pd=3.3u as=0.65p ps=3.3u w=1u l=0.35u
X88 phaseUpulse_0.monostable_0.nand$1_1.Z phaseUpulse_0.vneg a_n1388_602# vss.t33 nfet_03v3 ad=0.61p pd=3.22u as=0.4p ps=1.8u w=1u l=0.28u
X89 phaseUpulse_0.vspike_up vdd.t34 vdd.t35 vss.t53 nfet_03v3 ad=0.228p pd=1.98u as=0.228p ps=1.98u w=0.36u l=0.28u
X90 phaseUpulse_0.monostable_0.nand$1_0.Z phaseUpulse_0.monostable_0.not$1_0.in a_1078_602# vss.t67 nfet_03v3 ad=0.61p pd=3.22u as=0.4p ps=1.8u w=1u l=0.28u
X91 vdd.t26 phi_fire.t14 a_8075_5978# vdd.t25 pfet_03v3 ad=0.65p pd=3.3u as=0.65p ps=3.3u w=1u l=0.35u
X92 vspike a_952_2068# phaseUpulse_0.conmutator_0.out vdd.t5 pfet_03v3 ad=0.65p pd=3.3u as=0.65p ps=3.3u w=1u l=0.35u
X93 vout.t0 a_9352_5200# vmem.t3 vdd.t20 pfet_03v3 ad=0.65p pd=3.3u as=0.65p ps=3.3u w=1u l=0.35u
X94 a_9352_5200# phi_fire.t15 vss.t41 vss.t40 nfet_03v3 ad=0.61p pd=3.22u as=0.61p ps=3.22u w=1u l=0.28u
X95 a_2328_4757# phaseUpulse_0.refractory_0.ota_1stage$1_0.vp a_2266_6197# vss.t0 nfet_03v3 ad=1.8788p pd=7.38u as=1.8788p ps=7.38u w=3.08u l=0.28u
X96 vss.t60 phaseUpulse_0.phi_2 phaseUpulse_0.phi_int vss.t59 nfet_03v3 ad=0.61p pd=3.22u as=0.4p ps=1.8u w=1u l=0.28u
X97 vss.t43 phi_fire.t16 a_8075_5978# vss.t42 nfet_03v3 ad=0.61p pd=3.22u as=0.61p ps=3.22u w=1u l=0.28u
X98 phaseUpulse_0.refractory_0.ota_1stage$1_0.vn phaseUpulse_0.vspike_down phaseUpulse_0.vspike_down vss.t10 nfet_03v3 ad=0.305p pd=2.22u as=0.305p ps=2.22u w=0.5u l=0.5u
X99 vss.t38 a_3790_4625# a_2328_4757# vss.t37 nfet_03v3 ad=0.5124p pd=2.9u as=0.5124p ps=2.9u w=0.84u l=0.28u
X100 phaseUpulse_0.phi_2 phaseUpulse_0.monostable_0.not$1_0.in vss.t66 vss.t65 nfet_03v3 ad=0.61p pd=3.22u as=0.61p ps=3.22u w=1u l=0.28u
X101 phaseUpulse_0.monostable_0.not$1_0.in phaseUpulse_0.monostable_0.not$1_1.in vss.t75 vss.t74 nfet_03v3 ad=0.61p pd=3.22u as=0.61p ps=3.22u w=1u l=0.28u
X102 vss.t16 a_8075_5978# conmutator$1_0.out vdd.t11 pfet_03v3 ad=0.65p pd=3.3u as=0.65p ps=3.3u w=1u l=0.35u
R0 vss.n1201 vss.n212 52569.5
R1 vss.n1200 vss.n1199 12732.4
R2 vss.n1387 vss.n442 7073.53
R3 vss.n1628 vss.n139 6997.06
R4 vss.n1117 vss.n81 6933.33
R5 vss.n212 vss.n139 6767.65
R6 vss.n734 vss.n681 6102.12
R7 vss.n799 vss.n797 4445.99
R8 vss.n1405 vss.t71 3976.47
R9 vss.t55 vss.n1117 3683.33
R10 vss.t1 vss.n401 3619.61
R11 vss.n1372 vss.t36 3441.18
R12 vss.n797 vss.n733 3319.89
R13 vss.n1105 vss.n81 3135.29
R14 vss.t1 vss.n400 2931.37
R15 vss.n733 vss.n682 2746.31
R16 vss.n1199 vss.t55 2740.2
R17 vss.n1405 vss.t36 2498.04
R18 vss.n1332 vss.n1331 2281.37
R19 vss.n1330 vss.n446 2281.37
R20 vss.n1357 vss.n442 2281.37
R21 vss.n1201 vss.n1200 2166.67
R22 vss.t69 vss.n922 2021.95
R23 vss.n1620 vss.n1619 1853.24
R24 vss.n1628 vss.n1627 1848.04
R25 vss.n1372 vss.n401 1835.29
R26 vss.n1331 vss.n1330 1822.55
R27 vss.n801 vss.n681 1429.64
R28 vss.n802 vss.n680 1314.21
R29 vss.n1094 vss.n1079 1305.17
R30 vss.n1627 vss.n140 1300
R31 vss.n1619 vss.n140 1300
R32 vss.n1095 vss.n1094 1300
R33 vss.n1096 vss.n1095 1300
R34 vss.n1096 vss.n1074 1300
R35 vss.n1104 vss.n1074 1300
R36 vss.n1105 vss.n1104 1300
R37 vss.n1333 vss.n457 1300
R38 vss.n1333 vss.n1332 1300
R39 vss.n1356 vss.n446 1300
R40 vss.n1357 vss.n1356 1300
R41 vss.t52 vss.t49 1200
R42 vss.n769 vss.n762 910.816
R43 vss.n770 vss.n769 905.739
R44 vss.n786 vss.n770 905.739
R45 vss.n786 vss.n785 905.739
R46 vss.n785 vss.n784 905.739
R47 vss.n784 vss.n771 905.739
R48 vss.n771 vss.n680 905.739
R49 vss.t40 vss.t51 862.323
R50 vss.t63 vss.n555 861.788
R51 vss.n797 vss.n796 851.777
R52 vss.t44 vss.t42 823.909
R53 vss.t49 vss.n799 781.25
R54 vss.n800 vss.t52 781.25
R55 vss.n1288 vss.n468 777
R56 vss.t59 vss.n923 740.376
R57 vss.n1017 vss.t67 740.376
R58 vss.n999 vss.t33 740.376
R59 vss.n1387 vss.n400 688.236
R60 vss.n801 vss.n800 665.625
R61 vss.n943 vss.n924 625.567
R62 vss.n979 vss.n960 625.567
R63 vss.n512 vss.n468 610.4
R64 vss.n688 vss.n687 591.159
R65 vss.n683 vss.t32 549.77
R66 vss.t17 vss.n689 498.435
R67 vss.n732 vss.t32 467.491
R68 vss.t51 vss.n683 467.491
R69 vss.t1 vss.n212 429.981
R70 vss.n689 vss.t44 423.839
R71 vss.n690 vss.t17 423.839
R72 vss.n744 vss.t46 386.286
R73 vss.n996 vss.t14 378.729
R74 vss.n923 vss.t69 367.981
R75 vss.n924 vss.t22 367.981
R76 vss.n1018 vss.t74 367.981
R77 vss.t74 vss.n1017 367.981
R78 vss.n960 vss.t20 367.981
R79 vss.n1000 vss.t11 367.981
R80 vss.t11 vss.n999 367.981
R81 vss.n690 vss.n682 361.111
R82 vss.n555 vss.n5 336.683
R83 vss.t22 vss.t59 317.935
R84 vss.t20 vss.t67 317.935
R85 vss.t14 vss.t33 317.935
R86 vss.n792 vss.n737 290.378
R87 vss.n796 vss.t46 236.606
R88 vss.n1201 vss.t36 228.376
R89 vss.n1019 vss.n1018 195.766
R90 vss.n1001 vss.n1000 195.766
R91 vss.n754 vss.t48 186.673
R92 vss.n802 vss.n801 177.596
R93 vss.n139 vss.n138 167.925
R94 vss.n754 vss.t5 162.739
R95 vss.t64 vss.t30 155.767
R96 vss.t57 vss.n681 154.762
R97 vss.n1288 vss.n1287 153.263
R98 vss.n1027 vss.n1026 150.137
R99 vss.n1019 vss.n931 150.137
R100 vss.n1009 vss.n1008 150.137
R101 vss.n1001 vss.n967 150.137
R102 vss.n168 vss.n100 139.507
R103 vss.n187 vss.n149 131.757
R104 vss.n1636 vss.n112 131.757
R105 vss.n827 vss.n826 131.125
R106 vss.n825 vss.n673 131.125
R107 vss.n835 vss.n545 131.125
R108 vss.n1658 vss.t18 129.173
R109 vss.n826 vss.n825 123.919
R110 vss.n910 vss.n548 120.415
R111 vss.n920 vss.n548 120.415
R112 vss.t86 vss.n305 119.26
R113 vss.n733 vss.n732 117.808
R114 vss.n1201 vss.n457 114.707
R115 vss.n793 vss.n792 113.279
R116 vss vss.t86 112.478
R117 vss.n1650 vss.t18 107.215
R118 vss.n147 vss.n92 107.215
R119 vss.n744 vss.t48 103.707
R120 vss.n943 vss.t65 103.034
R121 vss.n979 vss.t34 103.034
R122 vss.n1643 vss.n101 102.047
R123 vss.n109 vss.t85 102.047
R124 vss.t30 vss.n304 101.41
R125 vss.n305 vss.t64 101.41
R126 vss.n921 vss.n545 99.4241
R127 vss.n922 vss.n921 97.6466
R128 vss.n168 vss.n149 96.8805
R129 vss.n687 vss.t40 96.2357
R130 vss.t42 vss.n688 96.2357
R131 vss.n1643 vss.n100 95.5887
R132 vss.n1027 vss.t65 92.7315
R133 vss.n1009 vss.t34 92.7315
R134 vss.n1659 vss.n81 83.9631
R135 vss.n721 vss.n695 83.9245
R136 vss.n1026 vss.t80 75.0684
R137 vss.n1008 vss.t82 75.0684
R138 vss.n310 vss.n256 73.8273
R139 vss.n303 vss.n259 73.8273
R140 vss.n890 vss.n559 73.8273
R141 vss.n902 vss.n566 73.8273
R142 vss.n611 vss.n610 73.8273
R143 vss.n1688 vss.n5 73.8273
R144 vss.n827 vss.t58 73.4875
R145 vss.n673 vss.t54 73.4875
R146 vss.n835 vss.t54 73.4875
R147 vss.n1420 vss.n410 69.8337
R148 vss.n1451 vss.n1450 69.8337
R149 vss.n1478 vss.n368 69.8337
R150 vss.n1472 vss.n1471 69.8337
R151 vss.n336 vss.n328 69.8337
R152 vss.n1614 vss.n1613 69.8337
R153 vss.t78 vss.n147 65.8789
R154 vss.t13 vss.n1636 65.8789
R155 vss.n737 vss.t57 65.4153
R156 vss.n1461 vss.n1460 65.2394
R157 vss.n1521 vss.t9 65.2394
R158 vss.n1529 vss.n335 65.2394
R159 vss.n148 vss.t78 62.0037
R160 vss.n902 vss.n559 58.4129
R161 vss.n1231 vss.n529 57.196
R162 vss.n1484 vss.n1483 56.0508
R163 vss.n715 vss.n695 55.9499
R164 vss.n610 vss.n555 51.517
R165 vss.t80 vss.n1025 50.0458
R166 vss.t82 vss.n1007 50.0458
R167 vss.n793 vss.t5 49.4605
R168 vss.n1362 vss.n400 48.7
R169 vss.t24 vss.n247 47.4606
R170 vss.n921 vss.n920 46.0412
R171 vss.n844 vss.n625 45.4324
R172 vss.t1 vss.t36 43.8098
R173 vss.t8 vss.n247 41.3759
R174 vss.n259 vss.t53 41.3759
R175 vss.n852 vss.t3 41.3759
R176 vss.n890 vss.t3 41.3759
R177 vss.n1380 vss.n420 41.3491
R178 vss.n910 vss.n555 41.3191
R179 vss.n801 vss.t58 40.3463
R180 vss.n309 vss.t53 40.159
R181 vss.n921 vss.n546 38.9456
R182 vss.n1637 vss.t13 36.169
R183 vss.n407 vss.n405 35.836
R184 vss.t0 vss.n398 35.836
R185 vss.n611 vss.t63 35.697
R186 vss.t0 vss.n1441 33.9982
R187 vss.n1444 vss.t1 33.9982
R188 vss.n1541 vss.n330 31.2417
R189 vss.t37 vss.n427 30.4236
R190 vss.n301 vss.n261 30.0268
R191 vss.n297 vss.n260 30.0268
R192 vss.n1124 vss.n1065 30.0268
R193 vss.n1181 vss.n1126 30.0268
R194 vss.n876 vss.n620 29.7505
R195 vss.n889 vss.n622 29.7505
R196 vss.n867 vss.n619 29.7505
R197 vss.n891 vss.n618 29.7505
R198 vss.n851 vss.n628 29.7505
R199 vss.n1129 vss.n64 29.7505
R200 vss.n1673 vss.n61 29.7505
R201 vss.n1665 vss.n76 29.7505
R202 vss.n1128 vss.n65 29.7505
R203 vss.n1671 vss.n67 29.7505
R204 vss.n1308 vss.n460 29.7505
R205 vss.n1305 vss.n461 29.7505
R206 vss.n1321 vss.n462 29.7505
R207 vss.n497 vss.n496 29.7505
R208 vss.t85 vss.n101 29.7104
R209 vss.n1637 vss.n109 29.7104
R210 vss.n1688 vss.n6 29.6123
R211 vss.n1044 vss.n1043 29.3207
R212 vss.n852 vss.n625 28.3954
R213 vss.n715 vss.t84 27.9752
R214 vss.t84 vss.n546 27.9752
R215 vss.n755 vss.n741 27.1716
R216 vss.n791 vss.n739 27.1716
R217 vss.n1638 vss.n108 26.8952
R218 vss.n136 vss.n110 26.8952
R219 vss.n256 vss.t24 26.3672
R220 vss.n764 vss.n762 26.2571
R221 vss.n1687 vss.n7 26.2505
R222 vss.n1683 vss.n8 26.2505
R223 vss.n1148 vss.n4 26.2505
R224 vss.n1689 vss.n3 26.2505
R225 vss.n900 vss.n569 26.2505
R226 vss.n612 vss.n571 26.2505
R227 vss.n915 vss.n549 26.2505
R228 vss.n919 vss.n551 26.2505
R229 vss.n1511 vss.n351 26.2505
R230 vss.n1273 vss.n511 26.2505
R231 vss.n1202 vss.n1201 25.9616
R232 vss.n283 vss.t25 25.5559
R233 vss.n1025 vss.n931 25.0231
R234 vss.n1007 vss.n967 25.0231
R235 vss.n402 vss.n393 24.8097
R236 vss.n330 vss.n209 24.8097
R237 vss.n1650 vss.n92 24.5434
R238 vss.n775 vss.n736 24.1237
R239 vss.n710 vss.n709 23.9479
R240 vss.n706 vss.n702 23.9479
R241 vss.n720 vss.n696 23.9479
R242 vss.n723 vss.n693 23.9479
R243 vss.n1582 vss.n241 23.9479
R244 vss.n1576 vss.n238 23.9479
R245 vss.n1553 vss.n321 23.9479
R246 vss.n223 vss.n219 23.9334
R247 vss.t56 vss.n56 23.9334
R248 vss.n1380 vss.n1362 23.8908
R249 vss.n1421 vss.n1420 23.8908
R250 vss.n1435 vss.n410 23.8908
R251 vss.n1441 vss.n405 23.8908
R252 vss.n1444 vss.n398 23.8908
R253 vss.n1450 vss.n393 23.8908
R254 vss.n1451 vss.n357 23.8908
R255 vss.n1471 vss.n1461 23.8908
R256 vss.n1521 vss.n349 23.8908
R257 vss.n1529 vss.n344 23.8908
R258 vss.n1535 vss.n336 23.8908
R259 vss.n1542 vss.n328 23.8908
R260 vss.n1614 vss.n209 23.8908
R261 vss.n317 vss.n239 23.406
R262 vss.n1435 vss.t36 22.9719
R263 vss.n1035 vss.n542 22.1935
R264 vss.n1002 vss.n970 22.0137
R265 vss.n988 vss.n971 22.0137
R266 vss.n981 vss.n965 22.0137
R267 vss.n1010 vss.n963 22.0137
R268 vss.n1020 vss.n934 22.0137
R269 vss.n952 vss.n935 22.0137
R270 vss.n945 vss.n929 22.0137
R271 vss.n1028 vss.n927 22.0137
R272 vss.n1584 vss.n233 21.9051
R273 vss.n1220 vss.t76 21.9051
R274 vss.n1551 vss.n1549 21.4687
R275 vss.n477 vss.t27 21.0939
R276 vss.n721 vss.n682 20.8444
R277 vss.n1566 vss.n1563 20.7984
R278 vss.n753 vss.n742 20.0599
R279 vss.n704 vss.n0 19.7904
R280 vss.n1203 vss.n1109 19.711
R281 vss.n1616 vss.t19 19.4713
R282 vss.n1179 vss.n510 18.66
R283 vss.n1692 vss.n1691 18.4568
R284 vss.n1035 vss 18.2874
R285 vss.n1037 vss.n1036 18.0005
R286 vss.n1483 vss.t61 17.4588
R287 vss.n426 vss.n75 17.4431
R288 vss.n803 vss.n679 17.0173
R289 vss.n194 vss.n143 16.8558
R290 vss.n178 vss.n150 16.8558
R291 vss.n291 vss.n290 16.7637
R292 vss.n290 vss.n257 16.7637
R293 vss.n254 vss.n250 16.7637
R294 vss.n311 vss.n254 16.7637
R295 vss.n284 vss.n282 16.6716
R296 vss.n844 vss.n547 16.6318
R297 vss.n273 vss.n272 16.5794
R298 vss.n1606 vss.n219 16.2262
R299 vss.n1591 vss.t10 16.2262
R300 vss.n1590 vss.n229 16.2262
R301 vss.n1584 vss.n1583 16.2262
R302 vss.n1191 vss.n1190 16.211
R303 vss.n1595 vss.n1594 16.2045
R304 vss.n283 vss.n244 15.8205
R305 vss.n922 vss.n544 15.7821
R306 vss.n1421 vss.n417 15.6211
R307 vss.n368 vss.n355 15.6211
R308 vss.n1041 vss.n533 15.433
R309 vss.n1282 vss.n512 15.4156
R310 vss.n1575 vss.t8 15.0092
R311 vss.n1512 vss.n1511 14.824
R312 vss.n1216 vss.n1215 14.2095
R313 vss.n195 vss.n194 14.0926
R314 vss.n202 vss.n201 14.0926
R315 vss.n1620 vss.n202 14.0926
R316 vss.n178 vss.n177 14.0926
R317 vss.n119 vss.n114 14.0926
R318 vss.n1629 vss.n119 14.0926
R319 vss.n1514 vss.n1512 14.0926
R320 vss.n1190 vss.n1189 13.8163
R321 vss.n1484 vss.n357 13.7834
R322 vss.n1542 vss.n1541 13.7834
R323 vss.n1115 vss.n84 13.7242
R324 vss.n1652 vss.n88 13.7242
R325 vss.n1285 vss.n512 13.7242
R326 vss.n282 vss.n278 13.3558
R327 vss.n1657 vss.n84 13.3558
R328 vss.n1653 vss.n1652 13.3558
R329 vss.n1652 vss.n1651 13.3558
R330 vss.n1649 vss.n84 13.3558
R331 vss.n1119 vss.t77 13.2942
R332 vss.n837 vss.n626 13.2637
R333 vss.n647 vss.n627 13.2637
R334 vss.n666 vss.n662 13.2637
R335 vss.n834 vss.n631 13.2637
R336 vss.n853 vss.n624 13.2637
R337 vss.n809 vss.n808 13.2637
R338 vss.n837 vss.n836 13.2637
R339 vss.n808 vss.n667 13.2637
R340 vss.n828 vss.n666 13.2637
R341 vss.n1087 vss.n71 13.2637
R342 vss.n1073 vss.n82 13.2637
R343 vss.n1646 vss.n1645 13.2637
R344 vss.n1073 vss.n74 13.2637
R345 vss.n1667 vss.n73 13.2637
R346 vss.n1642 vss.n102 13.2637
R347 vss.n1660 vss.n79 13.2637
R348 vss.n104 vss.n102 13.2637
R349 vss.n1645 vss.n1644 13.2637
R350 vss.n287 vss.n254 13.2637
R351 vss.n290 vss.n289 13.2637
R352 vss.n273 vss.n249 13.2637
R353 vss.n1109 vss.n1066 13.2637
R354 vss.n1190 vss.n1111 13.2637
R355 vss.n1341 vss.n452 13.2637
R356 vss.n1329 vss.n449 13.2637
R357 vss.n456 vss.n403 13.2637
R358 vss.n1443 vss.n354 13.2637
R359 vss.n354 vss.n350 13.2637
R360 vss.n1569 vss.n1561 13.2637
R361 vss.n1562 vss.n214 12.9873
R362 vss.n476 vss.n474 12.9873
R363 vss.n420 vss.n417 12.8645
R364 vss.n921 vss.n547 12.5754
R365 vss.n1672 vss.n66 12.1697
R366 vss.n525 vss.n522 11.9968
R367 vss.n536 vss.n530 11.8821
R368 vss.n1213 vss.n526 11.8821
R369 vss.n304 vss.n303 11.7641
R370 vss.n90 vss.t79 11.5442
R371 vss.n1593 vss.t19 11.3585
R372 vss.n732 vss 11.0681
R373 vss.n407 vss.t36 11.0268
R374 vss.t1 vss.n402 11.0268
R375 vss.n749 vss.t6 11.0113
R376 vss.n1233 vss.n526 10.9833
R377 vss.n1230 vss.n530 10.9833
R378 vss.n1280 vss.n1279 10.8187
R379 vss.n1316 vss.n465 10.8187
R380 vss.n1314 vss.n1313 10.8187
R381 vss.n490 vss.n486 10.8187
R382 vss.n494 vss.n492 10.8187
R383 vss.n503 vss.n482 10.8187
R384 vss.n1293 vss.n1292 10.8187
R385 vss.n1561 vss.n318 10.7963
R386 vss.n282 vss.n281 10.5926
R387 vss.n731 vss.n683 10.59
R388 vss.n726 vss.n690 10.59
R389 vss.n727 vss.n689 10.59
R390 vss.n1013 vss.n960 10.59
R391 vss.n1031 vss.n924 10.59
R392 vss.n1541 vss.n1540 10.59
R393 vss.n306 vss.n305 10.59
R394 vss.n309 vss.n308 10.59
R395 vss.n1410 vss.n420 10.59
R396 vss.n794 vss.n793 10.59
R397 vss.n800 vss.n542 10.59
R398 vss.n1575 vss.n244 10.5472
R399 vss.n1220 vss.n1063 10.5472
R400 vss.n478 vss.n477 10.5472
R401 vss.n1399 vss.n427 10.5472
R402 vss.n1393 vss.n435 10.5472
R403 vss.n525 vss.n507 10.5005
R404 vss.n646 vss.n645 10.4483
R405 vss.n1093 vss.n1080 10.4483
R406 vss.n1343 vss.n1342 10.4483
R407 vss.n1599 vss.n1598 10.4136
R408 vss.n1226 vss.n533 10.4084
R409 vss.n687 vss.n684 10.4005
R410 vss.n688 vss.n685 10.4005
R411 vss.n923 vss.n543 10.4005
R412 vss.n1025 vss.n1024 10.4005
R413 vss.n1017 vss.n1016 10.4005
R414 vss.n1007 vss.n1006 10.4005
R415 vss.n999 vss.n998 10.4005
R416 vss.n304 vss.n258 10.4005
R417 vss.n1411 vss.n402 10.4005
R418 vss.n1056 vss.n1055 10.4005
R419 vss.n796 vss.n795 10.4005
R420 vss.n799 vss.n798 10.4005
R421 vss.n1583 vss.t25 10.1415
R422 vss.n1212 vss.n1211 10.1415
R423 vss.n1286 vss.n510 10.1415
R424 vss.n1544 vss.n325 10.1321
R425 vss.n1574 vss.n317 10.0201
R426 vss.n1574 vss.n318 9.94896
R427 vss.n1626 vss.n119 9.85576
R428 vss.n202 vss.n141 9.85576
R429 vss.n180 vss.n178 9.85576
R430 vss.n194 vss.n193 9.85576
R431 vss.n1512 vss.n1509 9.85576
R432 vss.n1672 vss.n63 9.7359
R433 vss.n1303 vss.t27 9.7359
R434 vss.n72 vss.t28 9.54445
R435 vss.n450 vss.t39 9.54445
R436 vss.n658 vss.t4 9.54445
R437 vss.n1675 vss.t29 9.54326
R438 vss.n1319 vss.t38 9.54326
R439 vss.n893 vss.t7 9.54326
R440 vss.n1687 vss.n8 9.39524
R441 vss.n1681 vss.n1680 9.39524
R442 vss.n1678 vss.n58 9.39524
R443 vss.n1136 vss.n1135 9.39524
R444 vss.n1174 vss.n1173 9.39524
R445 vss.n1171 vss.n1168 9.39524
R446 vss.n1166 vss.n1139 9.39524
R447 vss.n1161 vss.n1160 9.39524
R448 vss.n1158 vss.n1144 9.39524
R449 vss.n1151 vss.n1150 9.39524
R450 vss.n1689 vss.n4 9.39524
R451 vss.n52 vss.n50 9.39524
R452 vss.n50 vss.n49 9.39524
R453 vss.n46 vss.n45 9.39524
R454 vss.n43 vss.n12 9.39524
R455 vss.n39 vss.n37 9.39524
R456 vss.n35 vss.n14 9.39524
R457 vss.n31 vss.n29 9.39524
R458 vss.n27 vss.n16 9.39524
R459 vss.n23 vss.n21 9.39524
R460 vss.n19 vss.n3 9.39524
R461 vss.n709 vss.n708 9.39524
R462 vss.n716 vss.n696 9.39524
R463 vss.n716 vss.n698 9.39524
R464 vss.n702 vss.n698 9.39524
R465 vss.n720 vss.n694 9.39524
R466 vss.n714 vss.n693 9.39524
R467 vss.n714 vss.n699 9.39524
R468 vss.n710 vss.n699 9.39524
R469 vss.n612 vss.n569 9.39524
R470 vss.n588 vss.n571 9.39524
R471 vss.n608 vss.n589 9.39524
R472 vss.n604 vss.n603 9.39524
R473 vss.n600 vss.n599 9.39524
R474 vss.n596 vss.n595 9.39524
R475 vss.n592 vss.n591 9.39524
R476 vss.n582 vss.n574 9.39524
R477 vss.n578 vss.n577 9.39524
R478 vss.n911 vss.n554 9.39524
R479 vss.n912 vss.n911 9.39524
R480 vss.n912 vss.n549 9.39524
R481 vss.n568 vss.n567 9.39524
R482 vss.n895 vss.n567 9.39524
R483 vss.n858 vss.n857 9.39524
R484 vss.n862 vss.n861 9.39524
R485 vss.n871 vss.n870 9.39524
R486 vss.n885 vss.n884 9.39524
R487 vss.n882 vss.n881 9.39524
R488 vss.n904 vss.n558 9.39524
R489 vss.n909 vss.n556 9.39524
R490 vss.n909 vss.n550 9.39524
R491 vss.n919 vss.n550 9.39524
R492 vss.n992 vss.n991 9.39524
R493 vss.n966 vss.n965 9.39524
R494 vss.n985 vss.n966 9.39524
R495 vss.n985 vss.n971 9.39524
R496 vss.n977 vss.n975 9.39524
R497 vss.n1010 vss.n964 9.39524
R498 vss.n1003 vss.n964 9.39524
R499 vss.n1003 vss.n1002 9.39524
R500 vss.n956 vss.n955 9.39524
R501 vss.n930 vss.n929 9.39524
R502 vss.n949 vss.n930 9.39524
R503 vss.n949 vss.n935 9.39524
R504 vss.n941 vss.n939 9.39524
R505 vss.n1028 vss.n928 9.39524
R506 vss.n1021 vss.n928 9.39524
R507 vss.n1021 vss.n1020 9.39524
R508 vss.n655 vss.n626 9.39524
R509 vss.n655 vss.n620 9.39524
R510 vss.n878 vss.n622 9.39524
R511 vss.n627 vss.n621 9.39524
R512 vss.n889 vss.n621 9.39524
R513 vss.n833 vss.n662 9.39524
R514 vss.n834 vss.n833 9.39524
R515 vss.n854 vss.n853 9.39524
R516 vss.n854 vss.n619 9.39524
R517 vss.n865 vss.n618 9.39524
R518 vss.n851 vss.n617 9.39524
R519 vss.n891 vss.n617 9.39524
R520 vss.n809 vss.n660 9.39524
R521 vss.n836 vss.n660 9.39524
R522 vss.n804 vss.n803 9.39524
R523 vss.n804 vss.n667 9.39524
R524 vss.n764 vss.n665 9.39524
R525 vss.n828 vss.n665 9.39524
R526 vss.n768 vss.n763 9.39524
R527 vss.n768 vss.n760 9.39524
R528 vss.n787 vss.n760 9.39524
R529 vss.n755 vss.n738 9.39524
R530 vss.n791 vss.n738 9.39524
R531 vss.n746 vss.n742 9.39524
R532 vss.n70 vss.n64 9.39524
R533 vss.n71 vss.n70 9.39524
R534 vss.n1177 vss.n1129 9.39524
R535 vss.n1673 vss.n62 9.39524
R536 vss.n1665 vss.n62 9.39524
R537 vss.n96 vss.n82 9.39524
R538 vss.n1646 vss.n96 9.39524
R539 vss.n1153 vss.n65 9.39524
R540 vss.n1140 vss.n1128 9.39524
R541 vss.n1671 vss.n68 9.39524
R542 vss.n1667 vss.n68 9.39524
R543 vss.n1642 vss.n103 9.39524
R544 vss.n1638 vss.n103 9.39524
R545 vss.n1660 vss.n80 9.39524
R546 vss.n104 vss.n80 9.39524
R547 vss.n1644 vss.n98 9.39524
R548 vss.n110 vss.n98 9.39524
R549 vss.n127 vss.n126 9.39524
R550 vss.n131 vss.n130 9.39524
R551 vss.n135 vss.n124 9.39524
R552 vss.n284 vss.n248 9.39524
R553 vss.n291 vss.n248 9.39524
R554 vss.n296 vss.n257 9.39524
R555 vss.n297 vss.n296 9.39524
R556 vss.n316 vss.n249 9.39524
R557 vss.n316 vss.n250 9.39524
R558 vss.n311 vss.n255 9.39524
R559 vss.n261 vss.n255 9.39524
R560 vss.n275 vss.n274 9.39524
R561 vss.n1203 vss.n1110 9.39524
R562 vss.n1209 vss.n1065 9.39524
R563 vss.n1209 vss.n1066 9.39524
R564 vss.n1181 vss.n1064 9.39524
R565 vss.n1191 vss.n1064 9.39524
R566 vss.n1187 vss.n1184 9.39524
R567 vss.n1197 vss.n1111 9.39524
R568 vss.n1657 vss.n85 9.39524
R569 vss.n1626 vss.n1625 9.39524
R570 vss.n1625 vss.n141 9.39524
R571 vss.n1651 vss.n89 9.39524
R572 vss.n188 vss.n89 9.39524
R573 vss.n188 vss.n143 9.39524
R574 vss.n196 vss.n195 9.39524
R575 vss.n196 vss.n111 9.39524
R576 vss.n201 vss.n111 9.39524
R577 vss.n1620 vss.n1618 9.39524
R578 vss.n1618 vss.n203 9.39524