* NGSPICE file created from LIF_comp.ext - technology: gf180mcuD

.subckt LIF_comp_pex vdd vss vin v_rew vout
X0 a_n1388_602# ota_1stage$2_0.vout vss.t6 vss.t5 nfet_03v3 ad=0.4p pd=1.8u as=0.61p ps=3.22u w=1u l=0.28u
X1 vspike a_3544_2068# v_ref vdd.t40 pfet_03v3 ad=0.65p pd=3.3u as=0.65p ps=3.3u w=1u l=0.35u
X2 vss.t44 v_rew.t0 a_n872_2246# vss.t43 nfet_03v3 ad=0.61p pd=3.22u as=0.61p ps=3.22u w=1u l=0.28u
X3 vss.t75 phi_fire.t2 a_8075_6021# vss.t74 nfet_03v3 ad=0.61p pd=3.22u as=0.61p ps=3.22u w=1u l=0.28u
X4 v_th phaseUpulse_0.vspike_down phaseUpulse_0.vspike_down vss.t30 nfet_03v3 ad=0.305p pd=2.22u as=0.305p ps=2.22u w=0.5u l=0.5u
X5 vspike a_2248_2068# phaseUpulse_0.vrefrac vdd.t25 pfet_03v3 ad=0.65p pd=3.3u as=0.65p ps=3.3u w=1u l=0.35u
X6 phaseUpulse_0.vspike_up vdd.t6 vdd.t7 vss.t36 nfet_03v3 ad=0.228p pd=1.98u as=0.228p ps=1.98u w=0.36u l=0.28u
X7 phaseUpulse_0.vneg phaseUpulse_0.monostable_0.not$1_3.in vdd.t69 vdd.t68 pfet_03v3 ad=0.65p pd=3.3u as=0.65p ps=3.3u w=1u l=0.35u
X8 vdd.t15 vdd.t14 a_6164_1900# vss.t32 nfet_03v3 ad=0.228p pd=1.98u as=0.228p ps=1.98u w=0.36u l=8.54u
X9 a_2583_6804# v_th ota_1stage$2_0.vout vss.t52 nfet_03v3 ad=1.8788p pd=7.38u as=1.8788p ps=7.38u w=3.08u l=0.28u
X10 phaseUpulse_0.phi_2 phaseUpulse_0.monostable_0.not$1_0.in vdd.t44 vdd.t43 pfet_03v3 ad=0.65p pd=3.3u as=0.65p ps=3.3u w=1u l=0.35u
X11 vdd.t42 phaseUpulse_0.monostable_0.not$1_0.in phaseUpulse_0.monostable_0.nand$1_0.Z vdd.t41 pfet_03v3 ad=0.65p pd=3.3u as=0.42p ps=1.84u w=1u l=0.28u
X12 vss.t22 phaseUpulse_0.phi_2 a_2248_2068# vss.t21 nfet_03v3 ad=0.61p pd=3.22u as=0.61p ps=3.22u w=1u l=0.28u
X13 vdd.t5 a_2521_8244# ota_1stage$2_0.vout vdd pfet_03v3 ad=0.546p pd=2.98u as=0.546p ps=2.98u w=0.84u l=0.28u
X14 a_2328_3444# phaseUpulse_0.refractory_0.ota_1stage$1_0.vp a_2266_4884# vss.t87 nfet_03v3 ad=1.8788p pd=7.38u as=1.8788p ps=7.38u w=3.08u l=0.28u
X15 vin.t0 a_8811_n132# vmem.t1 vdd.t32 pfet_03v3 ad=0.65p pd=3.3u as=0.65p ps=3.3u w=1u l=0.35u
X16 vss.t77 phi_fire.t3 a_8827_1078# vss.t76 nfet_03v3 ad=0.61p pd=3.22u as=0.61p ps=3.22u w=1u l=0.28u
X17 vss.t15 phaseUpulse_0.phi_1 a_952_2068# vss.t14 nfet_03v3 ad=0.61p pd=3.22u as=0.61p ps=3.22u w=1u l=0.28u
X18 v_ref a_8827_1078# conmutator$1_2.out vdd.t20 pfet_03v3 ad=0.65p pd=3.3u as=0.65p ps=3.3u w=1u l=0.35u
X19 vdd.t48 v_rew.t1 a_n872_2246# vdd.t47 pfet_03v3 ad=0.65p pd=3.3u as=0.65p ps=3.3u w=1u l=0.35u
X20 phaseUpulse_0.phi_1 phaseUpulse_0.vneg vdd.t3 vdd.t2 pfet_03v3 ad=0.65p pd=3.3u as=0.65p ps=3.3u w=1u l=0.35u
X21 v_ref a_9352_5200# vout.t2 vss.t66 nfet_03v3 ad=0.61p pd=3.22u as=0.61p ps=3.22u w=1u l=0.28u
X22 phaseUpulse_0.refractory_0.ota_1stage$1_0.vn phaseUpulse_0.vspike_down phaseUpulse_0.vspike_down vss.t29 nfet_03v3 ad=0.305p pd=2.22u as=0.305p ps=2.22u w=0.5u l=0.5u
X23 phaseUpulse_0.monostable_0.nand$1_0.Z phaseUpulse_0.phi_1 vdd.t31 vdd.t30 pfet_03v3 ad=0.42p pd=1.84u as=0.65p ps=3.3u w=1u l=0.28u
X24 a_7562_3851# a_7562_3851# vdd.t24 vdd.t23 pfet_03v3 ad=0.546p pd=2.98u as=0.546p ps=2.98u w=0.84u l=0.28u
X25 vdd.t13 vdd.t12 a_4045_6672# vss.t33 nfet_03v3 ad=0.228p pd=1.98u as=0.228p ps=1.98u w=0.36u l=8.54u
X26 phaseUpulse_0.monostable_0.nand$1_0.Z phaseUpulse_0.monostable_0.not$1_1.in cap_mim_2f0_m4m5_noshield c_width=5u c_length=5u
X27 a_1251_5604# phaseUpulse_0.vspike_up phaseUpulse_0.vspike_up vss.t0 nfet_03v3 ad=0.228p pd=1.98u as=0.228p ps=1.98u w=0.36u l=0.28u
X28 conmutator$1_2.out phi_fire.t4 vmem.t6 vdd.t32 pfet_03v3 ad=0.65p pd=3.3u as=0.65p ps=3.3u w=1u l=0.35u
X29 vdd.t1 phaseUpulse_0.vneg phaseUpulse_0.monostable_0.nand$1_1.Z vdd.t0 pfet_03v3 ad=0.65p pd=3.3u as=0.42p ps=1.84u w=1u l=0.28u
X30 vmem.t4 v_th vin.t1 vss.t51 nfet_03v3 ad=0.305p pd=2.22u as=0.305p ps=2.22u w=0.5u l=0.5u
X31 a_4045_6672# a_4045_6672# vss.t71 vss.t69 nfet_03v3 ad=0.5124p pd=2.9u as=0.5124p ps=2.9u w=0.84u l=0.28u
X32 a_3790_3312# a_3790_3312# vss.t65 vss.t63 nfet_03v3 ad=0.5124p pd=2.9u as=0.5124p ps=2.9u w=0.84u l=0.28u
X33 vss.t17 v_ref v_ref vss.t16 nfet_03v3 ad=0.228p pd=1.98u as=0.228p ps=1.98u w=0.36u l=0.28u
X34 a_8190_3623# vmem.t2 cap_mim_2f0_m4m5_noshield c_width=9u c_length=9u
X35 v_ref phi_fire.t5 conmutator$1_2.out vss.t27 nfet_03v3 ad=0.61p pd=3.22u as=0.61p ps=3.22u w=1u l=0.28u
X36 vdd.t35 phaseUpulse_0.phi_2 a_2248_2068# vdd.t34 pfet_03v3 ad=0.65p pd=3.3u as=0.65p ps=3.3u w=1u l=0.35u
X37 vss.t57 phaseUpulse_0.phi_int a_3544_2068# vss.t56 nfet_03v3 ad=0.61p pd=3.22u as=0.61p ps=3.22u w=1u l=0.28u
X38 a_9352_5200# phi_fire.t6 vdd.t46 vdd.t45 pfet_03v3 ad=0.65p pd=3.3u as=0.65p ps=3.3u w=1u l=0.35u
X39 vin.t3 conmutator$1_2.out cap_mim_2f0_m4m5_noshield c_width=9u c_length=9u
X40 vspike phaseUpulse_0.phi_1 phaseUpulse_0.conmutator_0.out vss.t13 nfet_03v3 ad=0.61p pd=3.22u as=0.61p ps=3.22u w=1u l=0.28u
X41 vmem.t3 a_8190_3623# vdd.t54 vdd.t53 pfet_03v3 ad=1.092p pd=4.66u as=1.092p ps=4.66u w=1.68u l=0.28u
X42 vdd.t29 phaseUpulse_0.phi_1 a_952_2068# vdd.t28 pfet_03v3 ad=0.65p pd=3.3u as=0.65p ps=3.3u w=1u l=0.35u
X43 phaseUpulse_0.conmutator_0.out v_rew.t2 phaseUpulse_0.vspike_up vdd.t49 pfet_03v3 ad=0.65p pd=3.3u as=0.65p ps=3.3u w=1u l=0.35u
X44 vss.t50 v_th phaseUpulse_0.monostable_0.not$1_3.in vss.t49 nfet_03v3 ad=0.61p pd=3.22u as=0.61p ps=3.22u w=1u l=0.3u
X45 phaseUpulse_0.monostable_0.nand$1_1.Z ota_1stage$2_0.vout vdd.t17 vdd.t16 pfet_03v3 ad=0.42p pd=1.84u as=0.65p ps=3.3u w=1u l=0.28u
X46 conmutator$1_2.out a_8827_1078# vmem.t0 vss.t8 nfet_03v3 ad=0.61p pd=3.22u as=0.61p ps=3.22u w=1u l=0.28u
X47 vdd.t37 phi_fire.t7 a_8811_n132# vdd.t36 pfet_03v3 ad=0.65p pd=3.3u as=0.65p ps=3.3u w=1u l=0.35u
X48 phaseUpulse_0.phi_int phaseUpulse_0.phi_1 vss.t12 vss.t11 nfet_03v3 ad=0.4p pd=1.8u as=0.61p ps=3.22u w=1u l=0.28u
X49 phaseUpulse_0.vneg phaseUpulse_0.monostable_0.not$1_3.in vss.t84 vss.t83 nfet_03v3 ad=0.61p pd=3.22u as=0.61p ps=3.22u w=1u l=0.28u
X50 vspike phaseUpulse_0.phi_int v_ref vss.t55 nfet_03v3 ad=0.61p pd=3.22u as=0.61p ps=3.22u w=1u l=0.28u
X51 vdd.t52 a_2266_4884# phaseUpulse_0.vrefrac vdd pfet_03v3 ad=0.546p pd=2.98u as=0.546p ps=2.98u w=0.84u l=0.28u
X52 vss.t48 v_th phaseUpulse_0.monostable_0.not$1_1.in vss.t47 nfet_03v3 ad=0.61p pd=3.22u as=0.61p ps=3.22u w=1u l=0.3u
X53 a_7562_3851# vin.t4 a_6854_3116# vss.t23 nfet_03v3 ad=1.8788p pd=7.38u as=1.8788p ps=7.38u w=3.08u l=0.28u
X54 ota_1stage$2_0.vp a_8075_6021# vmem.t9 vss.t61 nfet_03v3 ad=0.61p pd=3.22u as=0.61p ps=3.22u w=1u l=0.28u
X55 ota_1stage$2_0.vp phi_fire.t8 vmem.t8 vdd.t38 pfet_03v3 ad=0.65p pd=3.3u as=0.65p ps=3.3u w=1u l=0.35u
X56 vspike phaseUpulse_0.phi_2 phaseUpulse_0.vrefrac vss.t20 nfet_03v3 ad=0.61p pd=3.22u as=0.61p ps=3.22u w=1u l=0.28u
X57 vdd.t59 phaseUpulse_0.phi_int a_3544_2068# vdd.t58 pfet_03v3 ad=0.65p pd=3.3u as=0.65p ps=3.3u w=1u l=0.35u
X58 phaseUpulse_0.phi_1 phaseUpulse_0.vneg vss.t4 vss.t3 nfet_03v3 ad=0.61p pd=3.22u as=0.61p ps=3.22u w=1u l=0.28u
X59 vdd.t4 a_2521_8244# a_2521_8244# vdd pfet_03v3 ad=0.546p pd=2.98u as=0.546p ps=2.98u w=0.84u l=0.28u
X60 a_6854_3116# a_6164_1900# vss.t82 vss.t78 nfet_03v3 ad=0.5124p pd=2.9u as=0.5124p ps=2.9u w=0.84u l=0.28u
X61 phaseUpulse_0.conmutator_0.out a_n872_2246# phaseUpulse_0.vspike_up vss.t7 nfet_03v3 ad=0.61p pd=3.22u as=0.61p ps=3.22u w=1u l=0.28u
X62 phaseUpulse_0.monostable_0.nand$1_1.Z phaseUpulse_0.monostable_0.not$1_3.in cap_mim_2f0_m4m5_noshield c_width=5u c_length=5u
X63 v_ref phi_fire.t9 vout.t0 vdd.t39 pfet_03v3 ad=0.65p pd=3.3u as=0.65p ps=3.3u w=1u l=0.35u
X64 phi_fire.t0 phaseUpulse_0.phi_int vdd.t57 vdd.t56 pfet_03v3 ad=0.65p pd=3.3u as=0.65p ps=3.3u w=1u l=0.35u
X65 a_1078_602# phaseUpulse_0.phi_1 vss.t10 vss.t9 nfet_03v3 ad=0.4p pd=1.8u as=0.61p ps=3.22u w=1u l=0.28u
X66 vdd.t11 vdd.t10 a_3790_3312# vss.t35 nfet_03v3 ad=0.228p pd=1.98u as=0.228p ps=1.98u w=0.36u l=8.54u
X67 vmem.t11 a_6164_1900# vss.t81 vss.t80 nfet_03v3 ad=0.3416p pd=2.34u as=0.3416p ps=2.34u w=0.56u l=0.28u
X68 vdd.t61 phi_fire.t10 a_8827_1078# vdd.t60 pfet_03v3 ad=0.65p pd=3.3u as=0.65p ps=3.3u w=1u l=0.35u
X69 vdd.t22 a_7562_3851# a_8190_3623# vdd.t21 pfet_03v3 ad=0.546p pd=2.98u as=0.546p ps=2.98u w=0.84u l=0.28u
X70 phaseUpulse_0.phi_int phaseUpulse_0.phi_2 a_3544_1172# vdd.t33 pfet_03v3 ad=0.65p pd=3.3u as=0.42p ps=1.84u w=1u l=0.28u
X71 a_6854_3116# vspike a_8190_3623# vss.t31 nfet_03v3 ad=1.8788p pd=7.38u as=1.8788p ps=7.38u w=3.08u l=0.28u
X72 vdd.t63 phi_fire.t11 a_8075_6021# vdd.t62 pfet_03v3 ad=0.65p pd=3.3u as=0.65p ps=3.3u w=1u l=0.35u
X73 vss.t79 a_6164_1900# a_6164_1900# vss.t78 nfet_03v3 ad=0.5124p pd=2.9u as=0.5124p ps=2.9u w=0.84u l=0.28u
X74 vss.t59 phi_fire.t12 a_8811_n132# vss.t58 nfet_03v3 ad=0.61p pd=3.22u as=0.61p ps=3.22u w=1u l=0.28u
X75 vdd.t50 v_rew.t3 phaseUpulse_0.conmutator_0.out vss.t28 nfet_03v3 ad=0.61p pd=3.22u as=0.61p ps=3.22u w=1u l=0.28u
X76 a_2328_3444# phaseUpulse_0.refractory_0.ota_1stage$1_0.vn phaseUpulse_0.vrefrac vss.t20 nfet_03v3 ad=1.8788p pd=7.38u as=1.8788p ps=7.38u w=3.08u l=0.28u
X77 phaseUpulse_0.refractory_0.ota_1stage$1_0.vp phaseUpulse_0.refractory_0.ota_1stage$1_0.vp vss.t86 vss.t85 nfet_03v3 ad=3.05p pd=11.22u as=3.05p ps=11.22u w=5u l=0.28u
X78 phaseUpulse_0.monostable_0.not$1_0.in phaseUpulse_0.monostable_0.not$1_1.in vdd.t67 vdd.t66 pfet_03v3 ad=0.65p pd=3.3u as=0.65p ps=3.3u w=1u l=0.35u
X79 a_3544_1172# phaseUpulse_0.phi_1 vdd.t27 vdd.t26 pfet_03v3 ad=0.42p pd=1.84u as=0.65p ps=3.3u w=1u l=0.28u
X80 vss.t46 v_th v_th vss.t45 nfet_03v3 ad=0.305p pd=2.22u as=0.305p ps=2.22u w=0.5u l=0.8u
X81 vout.t1 phi_fire.t13 vmem.t7 vss.t39 nfet_03v3 ad=0.61p pd=3.22u as=0.61p ps=3.22u w=1u l=0.28u
X82 a_2583_6804# ota_1stage$2_0.vp a_2521_8244# vss.t62 nfet_03v3 ad=1.8788p pd=7.38u as=1.8788p ps=7.38u w=3.08u l=0.28u
X83 phaseUpulse_0.refractory_0.ota_1stage$1_0.vp phaseUpulse_0.vneg phaseUpulse_0.vneg vss.t2 nfet_03v3 ad=0.228p pd=1.98u as=0.228p ps=1.98u w=0.36u l=3u
X84 v_ref vdd.t8 vdd.t9 vss.t34 nfet_03v3 ad=0.3355p pd=2.32u as=0.3355p ps=2.32u w=0.55u l=0.28u
X85 vin.t2 phi_fire.t14 vmem.t5 vss.t40 nfet_03v3 ad=0.61p pd=3.22u as=0.61p ps=3.22u w=1u l=0.28u
X86 phi_fire.t1 phaseUpulse_0.phi_int vss.t54 vss.t53 nfet_03v3 ad=0.61p pd=3.22u as=0.61p ps=3.22u w=1u l=0.28u
X87 vdd.t19 a_n872_2246# phaseUpulse_0.conmutator_0.out vdd.t18 pfet_03v3 ad=0.65p pd=3.3u as=0.65p ps=3.3u w=1u l=0.35u
X88 vss.t42 phi_fire.t15 ota_1stage$2_0.vp vss.t41 nfet_03v3 ad=0.61p pd=3.22u as=0.61p ps=3.22u w=1u l=0.28u
X89 vss.t60 a_8075_6021# ota_1stage$2_0.vp vdd.t64 pfet_03v3 ad=0.65p pd=3.3u as=0.65p ps=3.3u w=1u l=0.35u
X90 phaseUpulse_0.monostable_0.nand$1_1.Z phaseUpulse_0.vneg a_n1388_602# vss.t1 nfet_03v3 ad=0.61p pd=3.22u as=0.4p ps=1.8u w=1u l=0.28u
X91 phaseUpulse_0.monostable_0.nand$1_0.Z phaseUpulse_0.monostable_0.not$1_0.in a_1078_602# vss.t26 nfet_03v3 ad=0.61p pd=3.22u as=0.4p ps=1.8u w=1u l=0.28u
X92 phaseUpulse_0.vrefrac phaseUpulse_0.refractory_0.ota_1stage$1_0.vn phaseUpulse_0.refractory_0.ota_1stage$1_0.vn vss.t67 nfet_03v3 ad=0.305p pd=2.22u as=0.305p ps=2.22u w=0.5u l=0.5u
X93 vss.t70 a_4045_6672# a_2583_6804# vss.t69 nfet_03v3 ad=0.5124p pd=2.9u as=0.5124p ps=2.9u w=0.84u l=0.28u
X94 vdd.t51 a_2266_4884# a_2266_4884# vdd pfet_03v3 ad=0.546p pd=2.98u as=0.546p ps=2.98u w=0.84u l=0.28u
X95 vspike a_952_2068# phaseUpulse_0.conmutator_0.out vdd.t55 pfet_03v3 ad=0.65p pd=3.3u as=0.65p ps=3.3u w=1u l=0.35u
X96 vout.t3 a_9352_5200# vmem.t10 vdd.t65 pfet_03v3 ad=0.65p pd=3.3u as=0.65p ps=3.3u w=1u l=0.35u
X97 vss.t64 a_3790_3312# a_2328_3444# vss.t63 nfet_03v3 ad=0.5124p pd=2.9u as=0.5124p ps=2.9u w=0.84u l=0.28u
X98 a_9352_5200# phi_fire.t16 vss.t38 vss.t37 nfet_03v3 ad=0.61p pd=3.22u as=0.61p ps=3.22u w=1u l=0.28u
X99 vss.t19 phaseUpulse_0.phi_2 phaseUpulse_0.phi_int vss.t18 nfet_03v3 ad=0.61p pd=3.22u as=0.4p ps=1.8u w=1u l=0.28u
X100 phaseUpulse_0.phi_2 phaseUpulse_0.monostable_0.not$1_0.in vss.t25 vss.t24 nfet_03v3 ad=0.61p pd=3.22u as=0.61p ps=3.22u w=1u l=0.28u
X101 phaseUpulse_0.monostable_0.not$1_0.in phaseUpulse_0.monostable_0.not$1_1.in vss.t73 vss.t72 nfet_03v3 ad=0.61p pd=3.22u as=0.61p ps=3.22u w=1u l=0.28u
X102 phaseUpulse_0.vspike_down a_1251_5604# a_1251_5604# vss.t68 nfet_03v3 ad=0.305p pd=2.22u as=0.305p ps=2.22u w=0.5u l=0.5u
R0 vss.n386 vss.n150 54624.7
R1 vss.n802 vss.n801 12732.4
R2 vss.n386 vss.n321 6691.18
R3 vss.n769 vss.n321 6665.69
R4 vss.n961 vss.n944 6102.12
R5 vss.n202 vss.n150 5709.8
R6 vss.n1180 vss.n1179 4445.99
R7 vss.n274 vss.t34 3683.33
R8 vss.n940 vss.n937 2942.91
R9 vss.n266 vss.n202 2803.92
R10 vss.n1181 vss.n1180 2749.79
R11 vss.n801 vss.t34 2740.2
R12 vss.t53 vss.n832 1853.46
R13 vss.n761 vss.n760 1853.24
R14 vss.n769 vss.n768 1848.04
R15 vss.n1061 vss.n944 1429.64
R16 vss.n1215 vss.n832 1407.47
R17 vss.n803 vss.n802 1363.73
R18 vss.n1021 vss.n943 1314.21
R19 vss.n255 vss.n215 1305.17
R20 vss.n768 vss.n322 1300
R21 vss.n760 vss.n322 1300
R22 vss.n256 vss.n255 1300
R23 vss.n257 vss.n256 1300
R24 vss.n257 vss.n210 1300
R25 vss.n265 vss.n210 1300
R26 vss.n266 vss.n265 1300
R27 vss.t40 vss.t58 1200
R28 vss.n996 vss.n991 910.816
R29 vss.n997 vss.n996 905.739
R30 vss.n998 vss.n997 905.739
R31 vss.n998 vss.n964 905.739
R32 vss.n1019 vss.n964 905.739
R33 vss.n1020 vss.n1019 905.739
R34 vss.n1021 vss.n1020 905.739
R35 vss.n274 vss.n150 892.158
R36 vss.n1180 vss.n942 851.777
R37 vss.t74 vss.t41 799.899
R38 vss.n1179 vss.t58 781.25
R39 vss.n1062 vss.t40 781.25
R40 vss.t18 vss.n1064 740.376
R41 vss.n1158 vss.t26 740.376
R42 vss.n1140 vss.t1 740.376
R43 vss.n1062 vss.n1061 665.625
R44 vss.n1084 vss.n1065 625.567
R45 vss.n1120 vss.n1101 625.567
R46 vss.n939 vss.n938 570.409
R47 vss.n933 vss.t61 487.5
R48 vss.n940 vss.t37 435.103
R49 vss.n1315 vss.n6 432.521
R50 vss.t7 vss.n674 429.632
R51 vss.t41 vss.n933 414.541
R52 vss.t61 vss.n932 414.541
R53 vss.n983 vss.t76 386.286
R54 vss.n1137 vss.t5 378.729
R55 vss vss.t7 376.401
R56 vss.n1064 vss.t53 367.981
R57 vss.n1065 vss.t11 367.981
R58 vss.n1159 vss.t72 367.981
R59 vss.t72 vss.n1158 367.981
R60 vss.n1101 vss.t9 367.981
R61 vss.n1141 vss.t83 367.981
R62 vss.t83 vss.n1140 367.981
R63 vss.n674 vss.t28 365.334
R64 vss.n937 vss.n932 353.19
R65 vss.t11 vss.t18 317.935
R66 vss.t9 vss.t26 317.935
R67 vss.t5 vss.t1 317.935
R68 vss.n1013 vss.n970 290.378
R69 vss.n1411 vss.n127 286.421
R70 vss.n1404 vss.n135 265.962
R71 vss.n522 vss.n515 265.962
R72 vss.n613 vss.n504 265.962
R73 vss.n725 vss.n724 263.036
R74 vss.t66 vss.n941 250.59
R75 vss.n560 vss.n524 248.427
R76 vss.t76 vss.n942 236.606
R77 vss.n723 vss.n422 223.584
R78 vss.n516 vss.n512 216.278
R79 vss.n629 vss.n471 216.278
R80 vss.n1181 vss.t66 213.088
R81 vss.n941 vss.t39 213.088
R82 vss.n613 vss.n498 210.433
R83 vss.n644 vss.n471 210.433
R84 vss.n1160 vss.n1159 195.766
R85 vss.n1142 vss.n1141 195.766
R86 vss.t39 vss.n940 187.517
R87 vss.t27 vss.n974 186.673
R88 vss.n1396 vss.n803 185.589
R89 vss.n1061 vss.n943 177.596
R90 vss.n321 vss.n320 171.47
R91 vss.t80 vss.n974 162.739
R92 vss.t8 vss.n944 154.762
R93 vss.n1168 vss.n1167 150.137
R94 vss.n1160 vss.n1072 150.137
R95 vss.n1150 vss.n1149 150.137
R96 vss.n1142 vss.n1108 150.137
R97 vss.t87 vss.n135 149.056
R98 vss.n551 vss.t87 149.056
R99 vss.t20 vss.n515 149.056
R100 vss.t20 vss.n516 149.056
R101 vss.n620 vss.t85 149.056
R102 vss.t21 vss.n522 146.133
R103 vss.n620 vss.t14 143.21
R104 vss.n698 vss.n697 143.21
R105 vss.n331 vss.n195 142.452
R106 vss.n703 vss.t2 141.75
R107 vss.n652 vss.t13 137.365
R108 vss.n374 vss.n330 134.537
R109 vss.n777 vss.n294 134.537
R110 vss.n749 vss.n393 134.097
R111 vss.n407 vss.n400 134.097
R112 vss.n735 vss.n407 134.097
R113 vss.n725 vss.n409 134.097
R114 vss.n282 vss.t62 131.899
R115 vss.n954 vss.n945 131.125
R116 vss.n1054 vss.n956 131.125
R117 vss.n1232 vss.n921 131.125
R118 vss.n1054 vss.n954 123.919
R119 vss.n644 vss.t14 122.752
R120 vss.t28 vss.n422 122.752
R121 vss.n560 vss.t21 116.906
R122 vss.n1005 vss.n970 113.279
R123 vss.n749 vss.n387 112.731
R124 vss.n791 vss.t62 109.477
R125 vss.n340 vss.n186 109.477
R126 vss.n1198 vss.n930 109.335
R127 vss.n784 vss.n196 104.201
R128 vss.n291 vss.t52 104.201
R129 vss.n983 vss.t27 103.707
R130 vss.n1084 vss.t24 103.034
R131 vss.n1120 vss.t3 103.034
R132 vss.n724 vss.n723 100.832
R133 vss.n1232 vss.n1215 99.4241
R134 vss.n374 vss.n331 98.925
R135 vss.n784 vss.n195 97.606
R136 vss.t37 vss.n939 92.8576
R137 vss.n938 vss.t74 92.8576
R138 vss.n1168 vss.t24 92.7315
R139 vss.n1150 vss.t3 92.7315
R140 vss.n283 vss.n202 85.7351
R141 vss.n449 vss.n447 84.7577
R142 vss.n1275 vss.n869 82.2561
R143 vss.n1308 vss.n857 82.2561
R144 vss.n1482 vss.n6 82.2561
R145 vss.t2 vss.n440 81.835
R146 vss.n681 vss.n432 80.3737
R147 vss.n1411 vss.t55 78.9124
R148 vss.n504 vss.n494 75.9897
R149 vss.n757 vss.n387 75.1535
R150 vss.t0 vss.n393 75.1535
R151 vss.t0 vss.n400 75.1535
R152 vss.n735 vss.t36 75.1535
R153 vss.t36 vss.n409 75.1535
R154 vss.n1167 vss.t47 75.0684
R155 vss.n1149 vss.t49 75.0684
R156 vss.n651 vss.t67 74.5284
R157 vss.n710 vss.t29 74.5284
R158 vss.t31 vss.n945 73.4875
R159 vss.t23 vss.n956 73.4875
R160 vss.t23 vss.n921 73.4875
R161 vss.t85 vss.n494 73.067
R162 vss.n1199 vss.n1198 72.8897
R163 vss.n457 vss.n456 71.6057
R164 vss.n456 vss.n438 70.1444
R165 vss.n164 vss.n163 68.6975
R166 vss.n681 vss.n680 68.6831
R167 vss.n710 vss.n432 68.6831
R168 vss.t45 vss.n340 67.2692
R169 vss.t30 vss.n777 67.2692
R170 vss.n661 vss.t67 67.2217
R171 vss.n698 vss.n440 67.2217
R172 vss.n1013 vss.t8 65.4153
R173 vss.n869 vss.n857 65.0819
R174 vss.n680 vss.n449 64.2991
R175 vss.n670 vss.t43 64.2991
R176 vss.n357 vss.t45 63.3122
R177 vss.n859 vss.n832 58.3025
R178 vss.n1215 vss.n1214 50.7371
R179 vss.n1239 vss.n904 50.6193
R180 vss.t47 vss.n1166 50.0458
R181 vss.t49 vss.n1148 50.0458
R182 vss.t16 vss.n76 49.9628
R183 vss.n1417 vss.t63 49.9628
R184 vss.n512 vss.n498 49.6857
R185 vss.t56 vss.t69 49.473
R186 vss.n1005 vss.t80 49.4605
R187 vss.n724 vss.n420 48.2244
R188 vss.n1247 vss.t78 46.0998
R189 vss.n1275 vss.t78 46.0998
R190 vss.n1061 vss.t31 40.3463
R191 vss.n859 vss.t32 39.7724
R192 vss.n758 vss.t68 37.577
R193 vss.t68 vss.n757 37.577
R194 vss.n778 vss.t30 36.9323
R195 vss.n1199 vss.t51 36.4451
R196 vss.n1214 vss.t51 36.4451
R197 vss.n1463 vss.n73 32.9954
R198 vss.n1482 vss.n7 32.9931
R199 vss.n1247 vss.n904 31.6373
R200 vss.n271 vss.n150 31.3494
R201 vss.t52 vss.n196 30.3374
R202 vss.n778 vss.n291 30.3374
R203 vss.n172 vss.n165 30.0268
R204 vss.n175 vss.n174 30.0268
R205 vss.n728 vss.n727 30.0268
R206 vss.n730 vss.n410 30.0268
R207 vss.n1262 vss.n868 29.7505
R208 vss.n1274 vss.n871 29.7505
R209 vss.n889 vss.n867 29.7505
R210 vss.n1276 vss.n866 29.7505
R211 vss.n1246 vss.n908 29.7505
R212 vss.n115 vss.n97 29.7505
R213 vss.n1435 vss.n99 29.7505
R214 vss.n1412 vss.n120 29.7505
R215 vss.n116 vss.n96 29.7505
R216 vss.n1419 vss.n1418 29.7505
R217 vss.n1462 vss.n77 29.7505
R218 vss.n1465 vss.n71 29.7505
R219 vss.n246 vss.n233 29.7505
R220 vss.n228 vss.n75 29.7505
R221 vss.n225 vss.n223 29.7505
R222 vss.n985 vss.n975 27.1716
R223 vss.n976 vss.n969 27.1716
R224 vss.n937 vss.n930 27.1553
R225 vss.n602 vss.n511 26.8952
R226 vss.n572 vss.n518 26.8952
R227 vss.n672 vss.n451 26.8952
R228 vss.n627 vss.n483 26.8952
R229 vss.n779 vss.n290 26.8952
R230 vss.n318 vss.n292 26.8952
R231 vss.n1476 vss.t35 26.6658
R232 vss.n991 vss.n947 26.2571
R233 vss.n1481 vss.n8 26.2505
R234 vss.n1477 vss.n9 26.2505
R235 vss.n59 vss.n5 26.2505
R236 vss.n1483 vss.n4 26.2505
R237 vss.n1303 vss.n860 26.2505
R238 vss.n1313 vss.n843 26.2505
R239 vss.n1309 vss.n856 26.2505
R240 vss.n1307 vss.n858 26.2505
R241 vss.n1360 vss.n816 26.2505
R242 vss.n1378 vss.n817 26.2505
R243 vss.n827 vss.n814 26.2505
R244 vss.n1381 vss.n1380 26.2505
R245 vss.n645 vss.n465 25.79
R246 vss.n621 vss.n493 25.79
R247 vss.n596 vss.n503 25.79
R248 vss.n615 vss.n495 25.79
R249 vss.n791 vss.n186 25.0614
R250 vss.n1166 vss.n1072 25.0231
R251 vss.n1148 vss.n1108 25.0231
R252 vss.n1012 vss.n1010 24.1237
R253 vss.n1315 vss.n832 23.9541
R254 vss.n1211 vss.n1210 23.9479
R255 vss.n1206 vss.n1205 23.9479
R256 vss.n1189 vss.n929 23.9479
R257 vss.n1197 vss.n931 23.9479
R258 vss.n716 vss.n421 23.9479
R259 vss.n722 vss.n424 23.9479
R260 vss.n695 vss.n433 23.9479
R261 vss.n637 vss.n462 23.9479
R262 vss.n704 vss.n437 23.9479
R263 vss.n804 vss.n93 23.0224
R264 vss.n1177 vss.n1176 22.1935
R265 vss.n1143 vss.n1111 22.0137
R266 vss.n1129 vss.n1112 22.0137
R267 vss.n1122 vss.n1106 22.0137
R268 vss.n1151 vss.n1104 22.0137
R269 vss.n1161 vss.n1075 22.0137
R270 vss.n1093 vss.n1076 22.0137
R271 vss.n1086 vss.n1070 22.0137
R272 vss.n1169 vss.n1068 22.0137
R273 vss.n1438 vss.n1437 21.063
R274 vss.n1417 vss.n114 21.063
R275 vss.n1404 vss.n127 20.4591
R276 vss.n982 vss.n979 20.0599
R277 vss.n272 vss.n92 19.711
R278 vss.n1239 vss.n913 18.5306
R279 vss.n1176 vss 18.2874
R280 vss.n1320 vss.n0 18.0005
R281 vss.n1487 vss.n1486 18.0005
R282 vss.n551 vss.n524 17.5365
R283 vss.n1023 vss.n1022 17.0173
R284 vss.n373 vss.n337 16.8558
R285 vss.n376 vss.n375 16.8558
R286 vss.n405 vss.n402 16.7637
R287 vss.n736 vss.n405 16.7637
R288 vss.n413 vss.n399 16.7637
R289 vss.n413 vss.n408 16.7637
R290 vss.n743 vss.n394 16.6716
R291 vss.n391 vss.n388 16.5794
R292 vss.n157 vss.n94 16.211
R293 vss.n758 vss.n386 16.21
R294 vss.n1438 vss.n93 14.6953
R295 vss.n1437 vss.t69 14.2055
R296 vss.t63 vss.n118 14.2055
R297 vss.n337 vss.n336 14.0926
R298 vss.n301 vss.n296 14.0926
R299 vss.n770 vss.n301 14.0926
R300 vss.n377 vss.n376 14.0926
R301 vss.n384 vss.n383 14.0926
R302 vss.n761 vss.n384 14.0926
R303 vss.n1215 vss.n913 14.0111
R304 vss.n158 vss.n157 13.8163
R305 vss.n276 vss.n187 13.7242
R306 vss.n793 vss.n151 13.7242
R307 vss.n281 vss.n187 13.3558
R308 vss.n794 vss.n793 13.3558
R309 vss.n790 vss.n187 13.3558
R310 vss.n793 vss.n792 13.3558
R311 vss.n747 vss.n394 13.3558
R312 vss.n161 vss.t17 13.2942
R313 vss.n1248 vss.n903 13.2637
R314 vss.n1226 vss.n907 13.2637
R315 vss.n1032 vss.n952 13.2637
R316 vss.n1033 vss.n911 13.2637
R317 vss.n1219 vss.n906 13.2637
R318 vss.n1037 vss.n1029 13.2637
R319 vss.n1031 vss.n903 13.2637
R320 vss.n1029 vss.n1028 13.2637
R321 vss.n952 vss.n948 13.2637
R322 vss.n1395 vss.n1394 13.2637
R323 vss.n545 vss.n514 13.2637
R324 vss.n521 vss.n517 13.2637
R325 vss.n546 vss.n123 13.2637
R326 vss.n550 vss.n521 13.2637
R327 vss.n543 vss.n132 13.2637
R328 vss.n552 vss.n545 13.2637
R329 vss.n1392 vss.n132 13.2637
R330 vss.n1398 vss.n1397 13.2637
R331 vss.n669 vss.n431 13.2637
R332 vss.n485 vss.n478 13.2637
R333 vss.n222 vss.n221 13.2637
R334 vss.n209 vss.n203 13.2637
R335 vss.n787 vss.n786 13.2637
R336 vss.n231 vss.n209 13.2637
R337 vss.n248 vss.n227 13.2637
R338 vss.n783 vss.n197 13.2637
R339 vss.n284 vss.n200 13.2637
R340 vss.n286 vss.n197 13.2637
R341 vss.n786 vss.n785 13.2637
R342 vss.n1439 vss.n92 13.2637
R343 vss.n157 vss.n152 13.2637
R344 vss.n401 vss.n391 13.2637
R345 vss.n411 vss.n405 13.2637
R346 vss.n414 vss.n413 13.2637
R347 vss.n1476 vss.n58 13.1072
R348 vss.n804 vss.n104 11.7563
R349 vss.n181 vss.t46 11.5442
R350 vss vss.n1181 11.0681
R351 vss.n1008 vss.t81 11.0113
R352 vss.n396 vss.n394 10.5926
R353 vss.n1154 vss.n1101 10.59
R354 vss.n1172 vss.n1065 10.59
R355 vss.n675 vss.n674 10.59
R356 vss.n456 vss.n453 10.59
R357 vss.n580 vss.n512 10.59
R358 vss.n541 vss.n127 10.59
R359 vss.n1182 vss.n941 10.59
R360 vss.n1186 vss.n933 10.59
R361 vss.n1187 vss.n932 10.59
R362 vss.n1006 vss.n1005 10.59
R363 vss.n1177 vss.n1062 10.59
R364 vss.n1231 vss.n1216 10.4483
R365 vss.n1403 vss.n136 10.4483
R366 vss.n254 vss.n216 10.4483
R367 vss.n1064 vss.n1063 10.4005
R368 vss.n1166 vss.n1165 10.4005
R369 vss.n1158 vss.n1157 10.4005
R370 vss.n1148 vss.n1147 10.4005
R371 vss.n1140 vss.n1139 10.4005
R372 vss.n539 vss.n524 10.4005
R373 vss.n594 vss.n494 10.4005
R374 vss.n452 vss.n449 10.4005
R375 vss.n805 vss.n804 10.4005
R376 vss.n938 vss.n935 10.4005
R377 vss.n939 vss.n936 10.4005
R378 vss.n973 vss.n942 10.4005
R379 vss.n1179 vss.n1178 10.4005
R380 vss.n699 vss.n445 10.0887
R381 vss.n688 vss.n687 9.85576
R382 vss.n636 vss.n478 9.85576
R383 vss.n691 vss.n442 9.85576
R384 vss.n369 vss.n337 9.85576
R385 vss.n376 vss.n325 9.85576
R386 vss.n767 vss.n301 9.85576
R387 vss.n384 vss.n323 9.85576
R388 vss.n144 vss.t65 9.54445
R389 vss.n250 vss.t71 9.54445
R390 vss.n919 vss.t79 9.54445
R391 vss.n1366 vss.t64 9.54326
R392 vss.n69 vss.t70 9.54326
R393 vss.n1278 vss.t82 9.54326
R394 vss.n1481 vss.n9 9.39524
R395 vss.n1477 vss.n57 9.39524
R396 vss.n1474 vss.n68 9.39524
R397 vss.n1469 vss.n1468 9.39524
R398 vss.n80 vss.n79 9.39524
R399 vss.n1459 vss.n1458 9.39524
R400 vss.n1455 vss.n1454 9.39524
R401 vss.n1451 vss.n1450 9.39524
R402 vss.n1445 vss.n1444 9.39524
R403 vss.n1483 vss.n5 9.39524
R404 vss.n53 vss.n51 9.39524
R405 vss.n51 vss.n50 9.39524
R406 vss.n47 vss.n46 9.39524
R407 vss.n44 vss.n13 9.39524
R408 vss.n40 vss.n38 9.39524
R409 vss.n36 vss.n15 9.39524
R410 vss.n32 vss.n30 9.39524
R411 vss.n28 vss.n17 9.39524
R412 vss.n24 vss.n22 9.39524
R413 vss.n20 vss.n4 9.39524
R414 vss.n1210 vss.n927 9.39524
R415 vss.n1200 vss.n929 9.39524
R416 vss.n1200 vss.n924 9.39524
R417 vss.n1205 vss.n924 9.39524
R418 vss.n1191 vss.n1189 9.39524
R419 vss.n1197 vss.n925 9.39524
R420 vss.n1213 vss.n925 9.39524
R421 vss.n1301 vss.n1300 9.39524
R422 vss.n1297 vss.n1296 9.39524
R423 vss.n1293 vss.n1292 9.39524
R424 vss.n1289 vss.n1288 9.39524
R425 vss.n1317 vss.n831 9.39524
R426 vss.n838 vss.n829 9.39524
R427 vss.n846 vss.n845 9.39524
R428 vss.n850 vss.n849 9.39524
R429 vss.n852 vss.n842 9.39524
R430 vss.n1309 vss.n843 9.39524
R431 vss.n1284 vss.n1282 9.39524
R432 vss.n1282 vss.n1281 9.39524
R433 vss.n882 vss.n880 9.39524
R434 vss.n884 vss.n879 9.39524
R435 vss.n893 vss.n875 9.39524
R436 vss.n1270 vss.n895 9.39524
R437 vss.n1268 vss.n1267 9.39524
R438 vss.n1259 vss.n900 9.39524
R439 vss.n1257 vss.n1256 9.39524
R440 vss.n1253 vss.n856 9.39524
R441 vss.n1307 vss.n860 9.39524
R442 vss.n1133 vss.n1132 9.39524
R443 vss.n1107 vss.n1106 9.39524
R444 vss.n1126 vss.n1107 9.39524
R445 vss.n1126 vss.n1112 9.39524
R446 vss.n1118 vss.n1116 9.39524
R447 vss.n1151 vss.n1105 9.39524
R448 vss.n1144 vss.n1105 9.39524
R449 vss.n1144 vss.n1143 9.39524
R450 vss.n1097 vss.n1096 9.39524
R451 vss.n1071 vss.n1070 9.39524
R452 vss.n1090 vss.n1071 9.39524
R453 vss.n1090 vss.n1076 9.39524
R454 vss.n1082 vss.n1080 9.39524
R455 vss.n1169 vss.n1069 9.39524
R456 vss.n1162 vss.n1069 9.39524
R457 vss.n1162 vss.n1161 9.39524
R458 vss.n1249 vss.n1248 9.39524
R459 vss.n1249 vss.n868 9.39524
R460 vss.n1264 vss.n871 9.39524
R461 vss.n907 vss.n870 9.39524
R462 vss.n1274 vss.n870 9.39524
R463 vss.n1035 vss.n1032 9.39524
R464 vss.n1035 vss.n1033 9.39524
R465 vss.n906 vss.n905 9.39524
R466 vss.n905 vss.n867 9.39524
R467 vss.n887 vss.n866 9.39524
R468 vss.n1246 vss.n865 9.39524
R469 vss.n1276 vss.n865 9.39524
R470 vss.n1037 vss.n1036 9.39524
R471 vss.n1036 vss.n1031 9.39524
R472 vss.n1023 vss.n946 9.39524
R473 vss.n1028 vss.n946 9.39524
R474 vss.n1060 vss.n947 9.39524
R475 vss.n1060 vss.n948 9.39524
R476 vss.n995 vss.n992 9.39524
R477 vss.n995 vss.n990 9.39524
R478 vss.n999 vss.n990 9.39524
R479 vss.n1004 vss.n975 9.39524
R480 vss.n1004 vss.n976 9.39524
R481 vss.n982 vss.n978 9.39524
R482 vss.n1378 vss.n816 9.39524
R483 vss.n1358 vss.n1357 9.39524
R484 vss.n1357 vss.n819 9.39524
R485 vss.n1353 vss.n1351 9.39524
R486 vss.n1349 vss.n821 9.39524
R487 vss.n1345 vss.n1343 9.39524
R488 vss.n1341 vss.n823 9.39524
R489 vss.n1337 vss.n1335 9.39524
R490 vss.n1333 vss.n825 9.39524
R491 vss.n1329 vss.n1327 9.39524
R492 vss.n1325 vss.n827 9.39524
R493 vss.n1380 vss.n814 9.39524
R494 vss.n1374 vss.n817 9.39524
R495 vss.n1372 vss.n1371 9.39524
R496 vss.n1369 vss.n1365 9.39524
R497 vss.n1432 vss.n1431 9.39524
R498 vss.n1429 vss.n105 9.39524
R499 vss.n1425 vss.n1424 9.39524
R500 vss.n1422 vss.n110 9.39524
R501 vss.n1386 vss.n812 9.39524
R502 vss.n119 vss.n115 9.39524
R503 vss.n1395 vss.n119 9.39524
R504 vss.n98 vss.n97 9.39524
R505 vss.n1416 vss.n99 9.39524
R506 vss.n1416 vss.n120 9.39524
R507 vss.n577 vss.n514 9.39524
R508 vss.n577 vss.n511 9.39524
R509 vss.n570 vss.n569 9.39524
R510 vss.n607 vss.n509 9.39524
R511 vss.n605 vss.n604 9.39524
R512 vss.n576 vss.n517 9.39524
R513 vss.n576 vss.n518 9.39524
R514 vss.n549 vss.n546 9.39524
R515 vss.n550 vss.n549 9.39524
R516 vss.n544 vss.n543 9.39524
R517 vss.n552 vss.n544 9.39524
R518 vss.n117 vss.n116 9.39524
R519 vss.n1392 vss.n117 9.39524
R520 vss.n809 vss.n96 9.39524
R521 vss.n1418 vss.n112 9.39524
R522 vss.n1397 vss.n112 9.39524
R523 vss.n718 vss.n424 9.39524
R524 vss.n709 vss.n433 9.39524
R525 vss.n709 vss.n423 9.39524
R526 vss.n722 vss.n423 9.39524
R527 vss.n694 vss.n688 9.39524
R528 vss.n627 vss.n454 9.39524
R529 vss.n662 vss.n454 9.39524
R530 vss.n663 vss.n662 9.39524
R531 vss.n663 vss.n441 9.39524
R532 vss.n446 vss.n441 9.39524
R533 vss.n450 vss.n446 9.39524
R534 vss.n679 vss.n450 9.39524
R535 vss.n679 vss.n451 9.39524
R536 vss.n639 vss.n636 9.39524
R537 vss.n650 vss.n462 9.39524
R538 vss.n650 vss.n436 9.39524
R539 vss.n704 vss.n436 9.39524
R540 vss.n689 vss.n437 9.39524
R541 vss.n645 vss.n466 9.39524
R542 vss.n642 vss.n474 9.39524
R543 vss.n488 vss.n487 9.39524
R544 vss.n596 vss.n492 9.39524
R545 vss.n621 vss.n492 9.39524
R546 vss.n612 vss.n497 9.39524
R547 vss.n612 vss.n505 9.39524
R548 vss.n582 vss.n581 9.39524
R549 vss.n586 vss.n585 9.39524
R550 vss.n590 vss.n589 9.39524
R551 vss.n592 vss.n503 9.39524
R552 vss.n619 vss.n495 9.39524
R553 vss.n619 vss.n465 9.39524
R554 vss.n219 vss.n77 9.39524
R555 vss.n222 vss.n219 9.39524
R556 vss.n1462 vss.n72 9.39524
R557 vss.n232 vss.n71 9.39524
R558 vss.n246 vss.n232 9.39524
R559 vss.n203 vss.n191 9.39524
R560 vss.n787 vss.n191 9.39524
R561 vss.n230 vss.n228 9.39524
R562 vss.n231 vss.n230 9.39524
R563 vss.n1447 vss.n75 9.39524
R564 vss.n226 vss.n225 9.39524
R565 vss.n248 vss.n226 9.39524
R566 vss.n783 vss.n198 9.39524
R567 vss.n779 vss.n198 9.39524
R568 vss.n285 vss.n284 9.39524
R569 vss.n286 vss.n285 9.39524
R570 vss.n785 vss.n193 9.39524
R571 vss.n292 vss.n193 9.39524
R572 vss.n309 vss.n308 9.39524
R573 vss.n313 vss.n312 9.39524
R574 vss.n317 vss.n306 9.39524
R575 vss.n273 vss.n272 9.39524
R576 vss.n165 vss.n91 9.39524
R577 vss.n1439 vss.n91 9.39524