* NGSPICE file created from top.ext - technology: gf180mcuD

.subckt nfet$34 a_1158_0# a_n84_n2# dw_n710_n726# a_38_n132# w_n710_n726#
X0 a_1158_0# a_38_n132# a_n84_n2# w_n710_n726# nfet_03v3 ad=0.2646p pd=2.1u as=0.2646p ps=2.1u w=0.42u l=5.6u
.ends

.subckt nfet$32 a_n84_n2# a_374_0# dw_n710_n726# a_38_n132# w_n710_n726#
X0 a_374_0# a_38_n132# a_n84_n2# w_n710_n726# nfet_03v3 ad=0.2646p pd=2.1u as=0.2646p ps=2.1u w=0.42u l=1.68u
.ends

.subckt pfet$17 a_150_0# a_38_n60# a_n92_0# w_n230_n138#
X0 a_150_0# a_38_n60# a_n92_0# w_n230_n138# pfet_03v3 ad=0.286p pd=2.18u as=0.286p ps=2.18u w=0.44u l=0.56u
.ends

.subckt cap_mim$3 m4_n120_n120# m4_0_0#
X0 m4_0_0# m4_n120_n120# cap_mim_2f0_m4m5_noshield c_width=6u c_length=5u
.ends

.subckt nfet$33 a_n84_n2# a_194_0# dw_n710_n726# a_38_n132# w_n710_n726#
X0 a_194_0# a_38_n132# a_n84_n2# w_n710_n726# nfet_03v3 ad=0.2646p pd=2.1u as=0.2646p ps=2.1u w=0.42u l=0.78u
.ends

.subckt pfet$18 a_38_n60# a_n92_0# a_318_0# w_n230_n138#
X0 a_318_0# a_38_n60# a_n92_0# w_n230_n138# pfet_03v3 ad=0.546p pd=2.98u as=0.546p ps=2.98u w=0.84u l=1.4u
.ends

.subckt nfet$31 a_150_0# dw_n710_n726# a_n84_0# a_38_n132# w_n710_n726#
X0 a_150_0# a_38_n132# a_n84_0# w_n710_n726# nfet_03v3 ad=0.2684p pd=2.1u as=0.2684p ps=2.1u w=0.44u l=0.56u
.ends

.subckt AH_neuron$1 vdd Current_in v_bias vout vss
Xnfet$34_0 m1_335_n170# Current_in nfet$34_0/dw_n710_n726# v_bias vss nfet$34
Xnfet$32_0 m1_335_n170# vss nfet$34_0/dw_n710_n726# vout vss nfet$32
Xpfet$17_0 vdd Current_in m2_381_1901# vdd pfet$17
Xcap_mim$3_0 Current_in vout cap_mim$3
Xnfet$33_0 vout vss nfet$34_0/dw_n710_n726# m2_381_1901# vss nfet$33
Xpfet$18_0 m2_381_1901# vout vdd vdd pfet$18
Xnfet$31_0 vss nfet$34_0/dw_n710_n726# m2_381_1901# Current_in vss nfet$31
.ends

.subckt pfet$16 a_1534_0# a_2174_0# a_1054_0# a_734_0# a_828_n136# a_28_n136# a_2588_n136#
+ a_1694_0# a_254_0# a_1628_n136# a_894_0# a_188_n136# a_988_n136# a_2814_0# a_2748_n136#
+ a_1788_n136# a_2334_0# a_348_n136# a_1214_0# a_1148_n136# a_1854_0# a_414_0# a_2108_n136#
+ a_2494_0# a_n92_0# a_1948_n136# a_1374_0# a_94_0# a_574_0# a_508_n136# a_2268_n136#
+ a_1308_n136# a_2014_0# a_668_n136# a_2428_n136# a_1468_n136# a_2654_0# w_n230_n138#
X0 a_1214_0# a_1148_n136# a_1054_0# w_n230_n138# pfet_03v3 ad=1.04p pd=4.52u as=1.04p ps=4.52u w=4u l=0.28u
X1 a_2654_0# a_2588_n136# a_2494_0# w_n230_n138# pfet_03v3 ad=1.04p pd=4.52u as=1.04p ps=4.52u w=4u l=0.28u
X2 a_734_0# a_668_n136# a_574_0# w_n230_n138# pfet_03v3 ad=1.04p pd=4.52u as=1.04p ps=4.52u w=4u l=0.28u
X3 a_2494_0# a_2428_n136# a_2334_0# w_n230_n138# pfet_03v3 ad=1.04p pd=4.52u as=1.04p ps=4.52u w=4u l=0.28u
X4 a_254_0# a_188_n136# a_94_0# w_n230_n138# pfet_03v3 ad=1.04p pd=4.52u as=1.04p ps=4.52u w=4u l=0.28u
X5 a_574_0# a_508_n136# a_414_0# w_n230_n138# pfet_03v3 ad=1.04p pd=4.52u as=1.04p ps=4.52u w=4u l=0.28u
X6 a_2014_0# a_1948_n136# a_1854_0# w_n230_n138# pfet_03v3 ad=1.04p pd=4.52u as=1.04p ps=4.52u w=4u l=0.28u
X7 a_1534_0# a_1468_n136# a_1374_0# w_n230_n138# pfet_03v3 ad=1.04p pd=4.52u as=1.04p ps=4.52u w=4u l=0.28u
X8 a_1374_0# a_1308_n136# a_1214_0# w_n230_n138# pfet_03v3 ad=1.04p pd=4.52u as=1.04p ps=4.52u w=4u l=0.28u
X9 a_1054_0# a_988_n136# a_894_0# w_n230_n138# pfet_03v3 ad=1.04p pd=4.52u as=1.04p ps=4.52u w=4u l=0.28u
X10 a_2814_0# a_2748_n136# a_2654_0# w_n230_n138# pfet_03v3 ad=2.6p pd=9.3u as=1.04p ps=4.52u w=4u l=0.28u
X11 a_894_0# a_828_n136# a_734_0# w_n230_n138# pfet_03v3 ad=1.04p pd=4.52u as=1.04p ps=4.52u w=4u l=0.28u
X12 a_2334_0# a_2268_n136# a_2174_0# w_n230_n138# pfet_03v3 ad=1.04p pd=4.52u as=1.04p ps=4.52u w=4u l=0.28u
X13 a_94_0# a_28_n136# a_n92_0# w_n230_n138# pfet_03v3 ad=1.04p pd=4.52u as=2.6p ps=9.3u w=4u l=0.28u
X14 a_2174_0# a_2108_n136# a_2014_0# w_n230_n138# pfet_03v3 ad=1.04p pd=4.52u as=1.04p ps=4.52u w=4u l=0.28u
X15 a_414_0# a_348_n136# a_254_0# w_n230_n138# pfet_03v3 ad=1.04p pd=4.52u as=1.04p ps=4.52u w=4u l=0.28u
X16 a_1854_0# a_1788_n136# a_1694_0# w_n230_n138# pfet_03v3 ad=1.04p pd=4.52u as=1.04p ps=4.52u w=4u l=0.28u
X17 a_1694_0# a_1628_n136# a_1534_0# w_n230_n138# pfet_03v3 ad=1.04p pd=4.52u as=1.04p ps=4.52u w=4u l=0.28u
.ends

.subckt gf180mcu_fd_sc_mcu9t5v0__inv_1$3 I VDD VSS ZN VNW VPW
X0 ZN I VDD VNW pfet_05v0 ad=0.8052p pd=4.54u as=0.8052p ps=4.54u w=1.83u l=0.5u
X1 ZN I VSS VPW nfet_05v0 ad=0.5808p pd=3.52u as=0.5808p ps=3.52u w=1.32u l=0.6u
.ends

.subckt nfet$30 vss a_734_0# a_510_n132# a_254_0# a_894_0# a_670_n132# a_830_n132#
+ a_414_0# a_30_n132# a_n84_0# a_94_0# a_190_n132# a_574_0# a_350_n132#
X0 a_734_0# a_670_n132# a_574_0# vss nfet_03v3 ad=1.04p pd=4.52u as=1.04p ps=4.52u w=4u l=0.28u
X1 a_254_0# a_190_n132# a_94_0# vss nfet_03v3 ad=1.04p pd=4.52u as=1.04p ps=4.52u w=4u l=0.28u
X2 a_574_0# a_510_n132# a_414_0# vss nfet_03v3 ad=1.04p pd=4.52u as=1.04p ps=4.52u w=4u l=0.28u
X3 a_894_0# a_830_n132# a_734_0# vss nfet_03v3 ad=2.44p pd=9.22u as=1.04p ps=4.52u w=4u l=0.28u
X4 a_94_0# a_30_n132# a_n84_0# vss nfet_03v3 ad=1.04p pd=4.52u as=2.44p ps=9.22u w=4u l=0.28u
X5 a_414_0# a_350_n132# a_254_0# vss nfet_03v3 ad=1.04p pd=4.52u as=1.04p ps=4.52u w=4u l=0.28u
.ends

.subckt swmatrix_Tgate VSS T1 T2 gated_control VDD
Xpfet$16_0 T1 T1 T2 T2 gf180mcu_fd_sc_mcu9t5v0__inv_1$3_0/ZN gf180mcu_fd_sc_mcu9t5v0__inv_1$3_0/ZN
+ gf180mcu_fd_sc_mcu9t5v0__inv_1$3_0/ZN T2 T1 gf180mcu_fd_sc_mcu9t5v0__inv_1$3_0/ZN
+ T1 gf180mcu_fd_sc_mcu9t5v0__inv_1$3_0/ZN gf180mcu_fd_sc_mcu9t5v0__inv_1$3_0/ZN T1
+ gf180mcu_fd_sc_mcu9t5v0__inv_1$3_0/ZN gf180mcu_fd_sc_mcu9t5v0__inv_1$3_0/ZN T2 gf180mcu_fd_sc_mcu9t5v0__inv_1$3_0/ZN
+ T1 gf180mcu_fd_sc_mcu9t5v0__inv_1$3_0/ZN T1 T2 gf180mcu_fd_sc_mcu9t5v0__inv_1$3_0/ZN
+ T1 T1 gf180mcu_fd_sc_mcu9t5v0__inv_1$3_0/ZN T2 T2 T1 gf180mcu_fd_sc_mcu9t5v0__inv_1$3_0/ZN
+ gf180mcu_fd_sc_mcu9t5v0__inv_1$3_0/ZN gf180mcu_fd_sc_mcu9t5v0__inv_1$3_0/ZN T2 gf180mcu_fd_sc_mcu9t5v0__inv_1$3_0/ZN
+ gf180mcu_fd_sc_mcu9t5v0__inv_1$3_0/ZN gf180mcu_fd_sc_mcu9t5v0__inv_1$3_0/ZN T2 VDD
+ pfet$16
Xgf180mcu_fd_sc_mcu9t5v0__inv_1$3_0 gated_control VDD VSS gf180mcu_fd_sc_mcu9t5v0__inv_1$3_0/ZN
+ VDD VSS gf180mcu_fd_sc_mcu9t5v0__inv_1$3
Xnfet$30_0 VSS T2 gated_control T1 T1 gated_control gated_control T2 gated_control
+ T1 T2 gated_control T1 gated_control nfet$30
.ends

.subckt gf180mcu_fd_sc_mcu9t5v0__latq_1 D E Q VDD VSS VNW VPW
X0 VSS a_1020_652# Q VPW nfet_05v0 ad=0.5808p pd=3.52u as=0.5808p ps=3.52u w=1.32u l=0.6u
X1 a_504_110# a_36_92# VDD VNW pfet_05v0 ad=0.44p pd=2.88u as=0.476p ps=2.18u w=1u l=0.5u
X2 VDD a_1020_652# Q VNW pfet_05v0 ad=0.8052p pd=4.54u as=0.8052p ps=4.54u w=1.83u l=0.5u
X3 a_1264_107# a_36_92# a_1020_652# VPW nfet_05v0 ad=0.263p pd=1.49u as=0.182p ps=1.22u w=0.7u l=0.6u
X4 VSS E a_36_92# VPW nfet_05v0 ad=0.263p pd=1.49u as=0.3476p ps=2.46u w=0.79u l=0.6u
X5 VSS a_1364_532# a_1264_107# VPW nfet_05v0 ad=0.2054p pd=1.31u as=0.263p ps=1.49u w=0.79u l=0.6u
X6 VDD E a_36_92# VNW pfet_05v0 ad=0.476p pd=2.18u as=0.6072p ps=3.64u w=1.38u l=0.5u
X7 VDD a_1364_532# a_1224_652# VNW pfet_05v0 ad=0.3588p pd=1.9u as=0.426p ps=2.08u w=1.38u l=0.5u
X8 a_872_652# D VDD VNW pfet_05v0 ad=0.12p pd=1.24u as=0.44p ps=2.88u w=1u l=0.5u
X9 a_1364_532# a_1020_652# VDD VNW pfet_05v0 ad=0.6072p pd=3.64u as=0.3588p ps=1.9u w=1.38u l=0.5u
X10 a_1020_652# a_504_110# a_872_107# VPW nfet_05v0 ad=0.182p pd=1.22u as=83.99999f ps=0.94u w=0.7u l=0.6u
X11 a_872_107# D VSS VPW nfet_05v0 ad=83.99999f pd=0.94u as=0.308p ps=2.28u w=0.7u l=0.6u
X12 a_1020_652# a_36_92# a_872_652# VNW pfet_05v0 ad=0.26p pd=1.52u as=0.12p ps=1.24u w=1u l=0.5u
X13 a_504_110# a_36_92# VSS VPW nfet_05v0 ad=0.308p pd=2.28u as=0.263p ps=1.49u w=0.7u l=0.6u
X14 a_1364_532# a_1020_652# VSS VPW nfet_05v0 ad=0.3476p pd=2.46u as=0.2054p ps=1.31u w=0.79u l=0.6u
X15 a_1224_652# a_504_110# a_1020_652# VNW pfet_05v0 ad=0.426p pd=2.08u as=0.26p ps=1.52u w=1u l=0.5u
.ends

.subckt gf180mcu_fd_sc_mcu9t5v0__nand2_1$1 A1 A2 VDD VSS ZN VNW VPW
X0 ZN A2 VDD VNW pfet_05v0 ad=0.4277p pd=2.165u as=0.7238p ps=4.17u w=1.645u l=0.5u
X1 VDD A1 ZN VNW pfet_05v0 ad=0.7238p pd=4.17u as=0.4277p ps=2.165u w=1.645u l=0.5u
X2 ZN A1 a_245_69# VPW nfet_05v0 ad=0.5808p pd=3.52u as=0.2112p ps=1.64u w=1.32u l=0.6u
X3 a_245_69# A2 VSS VPW nfet_05v0 ad=0.2112p pd=1.64u as=0.5808p ps=3.52u w=1.32u l=0.6u
.ends

.subckt gf180mcu_fd_sc_mcu9t5v0__inv_1$2 I VDD VSS ZN VNW VPW
X0 ZN I VDD VNW pfet_05v0 ad=0.8052p pd=4.54u as=0.8052p ps=4.54u w=1.83u l=0.5u
X1 ZN I VSS VPW nfet_05v0 ad=0.5808p pd=3.52u as=0.5808p ps=3.52u w=1.32u l=0.6u
.ends

.subckt DFF_2phase_1$1 gated_control PHI_1 D EN PHI_2 VDD Q VSS
Xgf180mcu_fd_sc_mcu9t5v0__latq_1_0 gf180mcu_fd_sc_mcu9t5v0__latq_1_1/Q PHI_2 Q VDD
+ VSS VDD VSS gf180mcu_fd_sc_mcu9t5v0__latq_1
Xgf180mcu_fd_sc_mcu9t5v0__latq_1_1 D PHI_1 gf180mcu_fd_sc_mcu9t5v0__latq_1_1/Q VDD
+ VSS VDD VSS gf180mcu_fd_sc_mcu9t5v0__latq_1
Xgf180mcu_fd_sc_mcu9t5v0__nand2_1$1_0 EN Q VDD VSS gf180mcu_fd_sc_mcu9t5v0__inv_1$2_0/I
+ VDD VSS gf180mcu_fd_sc_mcu9t5v0__nand2_1$1
Xgf180mcu_fd_sc_mcu9t5v0__inv_1$2_0 gf180mcu_fd_sc_mcu9t5v0__inv_1$2_0/I VDD VSS gated_control
+ VDD VSS gf180mcu_fd_sc_mcu9t5v0__inv_1$2
.ends

.subckt ShiftReg_row_10_2 gc[1] gc[2] gc[3] gc[4] gc[5] gc[7] gc[8] gc[9] gc[10] Q[10]
+ PHI_2 D_in Q[4] Q[9] Q[3] Q[8] Q[5] Q[7] Q[6] Q[1] Q[2] EN PHI_1 gc[6] VSS VDD
XDFF_2phase_1$1_0 gc[10] PHI_1 Q[9] EN PHI_2 VDD Q[10] VSS DFF_2phase_1$1
XDFF_2phase_1$1_1 gc[9] PHI_1 Q[8] EN PHI_2 VDD Q[9] VSS DFF_2phase_1$1
XDFF_2phase_1$1_2 gc[8] PHI_1 Q[7] EN PHI_2 VDD Q[8] VSS DFF_2phase_1$1
XDFF_2phase_1$1_3 gc[7] PHI_1 Q[6] EN PHI_2 VDD Q[7] VSS DFF_2phase_1$1
XDFF_2phase_1$1_4 gc[6] PHI_1 Q[5] EN PHI_2 VDD Q[6] VSS DFF_2phase_1$1
XDFF_2phase_1$1_5 gc[5] PHI_1 Q[4] EN PHI_2 VDD Q[5] VSS DFF_2phase_1$1
XDFF_2phase_1$1_6 gc[4] PHI_1 Q[3] EN PHI_2 VDD Q[4] VSS DFF_2phase_1$1
XDFF_2phase_1$1_7 gc[3] PHI_1 Q[2] EN PHI_2 VDD Q[3] VSS DFF_2phase_1$1
XDFF_2phase_1$1_8 gc[1] PHI_1 D_in EN PHI_2 VDD Q[1] VSS DFF_2phase_1$1
XDFF_2phase_1$1_9 gc[2] PHI_1 Q[1] EN PHI_2 VDD Q[2] VSS DFF_2phase_1$1
.ends

.subckt swmatrix_row_10 pin BUS[2] BUS[5] BUS[6] BUS[7] BUS[8] BUS[9] BUS[10] d_out
+ BUS[4] ShiftReg_row_10_2_0/D_in BUS[3] ShiftReg_row_10_2_0/EN ShiftReg_row_10_2_0/PHI_2
+ swmatrix_Tgate_9/VDD ShiftReg_row_10_2_0/PHI_1 BUS[1] VSUBS
Xswmatrix_Tgate_0 VSUBS pin BUS[7] ShiftReg_row_10_2_0/gc[7] swmatrix_Tgate_9/VDD
+ swmatrix_Tgate
Xswmatrix_Tgate_1 VSUBS pin BUS[9] ShiftReg_row_10_2_0/gc[9] swmatrix_Tgate_9/VDD
+ swmatrix_Tgate
Xswmatrix_Tgate_2 VSUBS pin BUS[10] ShiftReg_row_10_2_0/gc[10] swmatrix_Tgate_9/VDD
+ swmatrix_Tgate
Xswmatrix_Tgate_3 VSUBS pin BUS[8] ShiftReg_row_10_2_0/gc[8] swmatrix_Tgate_9/VDD
+ swmatrix_Tgate
Xswmatrix_Tgate_4 VSUBS pin BUS[3] ShiftReg_row_10_2_0/gc[3] swmatrix_Tgate_9/VDD
+ swmatrix_Tgate
XShiftReg_row_10_2_0 ShiftReg_row_10_2_0/gc[1] ShiftReg_row_10_2_0/gc[2] ShiftReg_row_10_2_0/gc[3]
+ ShiftReg_row_10_2_0/gc[4] ShiftReg_row_10_2_0/gc[5] ShiftReg_row_10_2_0/gc[7] ShiftReg_row_10_2_0/gc[8]
+ ShiftReg_row_10_2_0/gc[9] ShiftReg_row_10_2_0/gc[10] d_out ShiftReg_row_10_2_0/PHI_2
+ ShiftReg_row_10_2_0/D_in ShiftReg_row_10_2_0/Q[4] ShiftReg_row_10_2_0/Q[9] ShiftReg_row_10_2_0/Q[3]
+ ShiftReg_row_10_2_0/Q[8] ShiftReg_row_10_2_0/Q[5] ShiftReg_row_10_2_0/Q[7] ShiftReg_row_10_2_0/Q[6]
+ ShiftReg_row_10_2_0/Q[1] ShiftReg_row_10_2_0/Q[2] ShiftReg_row_10_2_0/EN ShiftReg_row_10_2_0/PHI_1
+ ShiftReg_row_10_2_0/gc[6] VSUBS swmatrix_Tgate_9/VDD ShiftReg_row_10_2
Xswmatrix_Tgate_5 VSUBS pin BUS[5] ShiftReg_row_10_2_0/gc[5] swmatrix_Tgate_9/VDD
+ swmatrix_Tgate
Xswmatrix_Tgate_6 VSUBS pin BUS[6] ShiftReg_row_10_2_0/gc[6] swmatrix_Tgate_9/VDD
+ swmatrix_Tgate
Xswmatrix_Tgate_7 VSUBS pin BUS[4] ShiftReg_row_10_2_0/gc[4] swmatrix_Tgate_9/VDD
+ swmatrix_Tgate
Xswmatrix_Tgate_8 VSUBS pin BUS[2] ShiftReg_row_10_2_0/gc[2] swmatrix_Tgate_9/VDD
+ swmatrix_Tgate
Xswmatrix_Tgate_9 VSUBS pin BUS[1] ShiftReg_row_10_2_0/gc[1] swmatrix_Tgate_9/VDD
+ swmatrix_Tgate
.ends

.subckt gf180mcu_fd_sc_mcu9t5v0__nand2_1 A1 A2 VDD VSS ZN VNW VPW
X0 ZN A2 VDD VNW pfet_05v0 ad=0.4277p pd=2.165u as=0.7238p ps=4.17u w=1.645u l=0.5u
X1 VDD A1 ZN VNW pfet_05v0 ad=0.7238p pd=4.17u as=0.4277p ps=2.165u w=1.645u l=0.5u
X2 ZN A1 a_245_69# VPW nfet_05v0 ad=0.5808p pd=3.52u as=0.2112p ps=1.64u w=1.32u l=0.6u
X3 a_245_69# A2 VSS VPW nfet_05v0 ad=0.2112p pd=1.64u as=0.5808p ps=3.52u w=1.32u l=0.6u
.ends

.subckt gf180mcu_fd_sc_mcu9t5v0__inv_1 I VDD VSS ZN VNW VPW
X0 ZN I VDD VNW pfet_05v0 ad=0.8052p pd=4.54u as=0.8052p ps=4.54u w=1.83u l=0.5u
X1 ZN I VSS VPW nfet_05v0 ad=0.5808p pd=3.52u as=0.5808p ps=3.52u w=1.32u l=0.6u
.ends

.subckt NO_ClkGen$1 clk phi_2 phi_1 vdd vss
Xgf180mcu_fd_sc_mcu9t5v0__nand2_1_0 gf180mcu_fd_sc_mcu9t5v0__inv_1_13/ZN gf180mcu_fd_sc_mcu9t5v0__inv_1_16/I
+ vdd vss gf180mcu_fd_sc_mcu9t5v0__inv_1_3/I vdd vss gf180mcu_fd_sc_mcu9t5v0__nand2_1
Xgf180mcu_fd_sc_mcu9t5v0__nand2_1_1 gf180mcu_fd_sc_mcu9t5v0__inv_1_5/ZN gf180mcu_fd_sc_mcu9t5v0__inv_1_16/ZN
+ vdd vss gf180mcu_fd_sc_mcu9t5v0__inv_1_11/I vdd vss gf180mcu_fd_sc_mcu9t5v0__nand2_1
Xgf180mcu_fd_sc_mcu9t5v0__inv_1_0 gf180mcu_fd_sc_mcu9t5v0__inv_1_0/I vdd vss gf180mcu_fd_sc_mcu9t5v0__inv_1_1/I
+ vdd vss gf180mcu_fd_sc_mcu9t5v0__inv_1
Xgf180mcu_fd_sc_mcu9t5v0__inv_1_2 phi_2 vdd vss gf180mcu_fd_sc_mcu9t5v0__inv_1_0/I
+ vdd vss gf180mcu_fd_sc_mcu9t5v0__inv_1
Xgf180mcu_fd_sc_mcu9t5v0__inv_1_1 gf180mcu_fd_sc_mcu9t5v0__inv_1_1/I vdd vss gf180mcu_fd_sc_mcu9t5v0__inv_1_7/I
+ vdd vss gf180mcu_fd_sc_mcu9t5v0__inv_1
Xgf180mcu_fd_sc_mcu9t5v0__inv_1_3 gf180mcu_fd_sc_mcu9t5v0__inv_1_3/I vdd vss phi_2
+ vdd vss gf180mcu_fd_sc_mcu9t5v0__inv_1
Xgf180mcu_fd_sc_mcu9t5v0__inv_1_4 gf180mcu_fd_sc_mcu9t5v0__inv_1_4/I vdd vss gf180mcu_fd_sc_mcu9t5v0__inv_1_5/I
+ vdd vss gf180mcu_fd_sc_mcu9t5v0__inv_1
Xgf180mcu_fd_sc_mcu9t5v0__inv_1_5 gf180mcu_fd_sc_mcu9t5v0__inv_1_5/I vdd vss gf180mcu_fd_sc_mcu9t5v0__inv_1_5/ZN
+ vdd vss gf180mcu_fd_sc_mcu9t5v0__inv_1
Xgf180mcu_fd_sc_mcu9t5v0__inv_1_6 gf180mcu_fd_sc_mcu9t5v0__inv_1_6/I vdd vss gf180mcu_fd_sc_mcu9t5v0__inv_1_4/I
+ vdd vss gf180mcu_fd_sc_mcu9t5v0__inv_1
Xgf180mcu_fd_sc_mcu9t5v0__inv_1_10 phi_1 vdd vss gf180mcu_fd_sc_mcu9t5v0__inv_1_8/I
+ vdd vss gf180mcu_fd_sc_mcu9t5v0__inv_1
Xgf180mcu_fd_sc_mcu9t5v0__inv_1_7 gf180mcu_fd_sc_mcu9t5v0__inv_1_7/I vdd vss gf180mcu_fd_sc_mcu9t5v0__inv_1_6/I
+ vdd vss gf180mcu_fd_sc_mcu9t5v0__inv_1
Xgf180mcu_fd_sc_mcu9t5v0__inv_1_11 gf180mcu_fd_sc_mcu9t5v0__inv_1_11/I vdd vss phi_1
+ vdd vss gf180mcu_fd_sc_mcu9t5v0__inv_1
Xgf180mcu_fd_sc_mcu9t5v0__inv_1_8 gf180mcu_fd_sc_mcu9t5v0__inv_1_8/I vdd vss gf180mcu_fd_sc_mcu9t5v0__inv_1_9/I
+ vdd vss gf180mcu_fd_sc_mcu9t5v0__inv_1
Xgf180mcu_fd_sc_mcu9t5v0__inv_1_12 gf180mcu_fd_sc_mcu9t5v0__inv_1_12/I vdd vss gf180mcu_fd_sc_mcu9t5v0__inv_1_13/I
+ vdd vss gf180mcu_fd_sc_mcu9t5v0__inv_1
Xgf180mcu_fd_sc_mcu9t5v0__inv_1_9 gf180mcu_fd_sc_mcu9t5v0__inv_1_9/I vdd vss gf180mcu_fd_sc_mcu9t5v0__inv_1_9/ZN
+ vdd vss gf180mcu_fd_sc_mcu9t5v0__inv_1
Xgf180mcu_fd_sc_mcu9t5v0__inv_1_13 gf180mcu_fd_sc_mcu9t5v0__inv_1_13/I vdd vss gf180mcu_fd_sc_mcu9t5v0__inv_1_13/ZN
+ vdd vss gf180mcu_fd_sc_mcu9t5v0__inv_1
Xgf180mcu_fd_sc_mcu9t5v0__inv_1_14 gf180mcu_fd_sc_mcu9t5v0__inv_1_14/I vdd vss gf180mcu_fd_sc_mcu9t5v0__inv_1_12/I
+ vdd vss gf180mcu_fd_sc_mcu9t5v0__inv_1
Xgf180mcu_fd_sc_mcu9t5v0__inv_1_15 gf180mcu_fd_sc_mcu9t5v0__inv_1_9/ZN vdd vss gf180mcu_fd_sc_mcu9t5v0__inv_1_14/I
+ vdd vss gf180mcu_fd_sc_mcu9t5v0__inv_1
Xgf180mcu_fd_sc_mcu9t5v0__inv_1_16 gf180mcu_fd_sc_mcu9t5v0__inv_1_16/I vdd vss gf180mcu_fd_sc_mcu9t5v0__inv_1_16/ZN
+ vdd vss gf180mcu_fd_sc_mcu9t5v0__inv_1
Xgf180mcu_fd_sc_mcu9t5v0__inv_1_17 clk vdd vss gf180mcu_fd_sc_mcu9t5v0__inv_1_16/I
+ vdd vss gf180mcu_fd_sc_mcu9t5v0__inv_1
.ends

.subckt gf180mcu_fd_sc_mcu9t5v0__and2_1 A1 A2 VDD VSS Z VNW VPW
X0 VDD A2 a_36_201# VNW pfet_05v0 ad=0.5054p pd=2.57u as=0.2132p ps=1.34u w=0.82u l=0.5u
X1 a_244_201# A1 a_36_201# VPW nfet_05v0 ad=0.1056p pd=0.98u as=0.2904p ps=2.2u w=0.66u l=0.6u
X2 Z a_36_201# VSS VPW nfet_05v0 ad=0.5808p pd=3.52u as=0.3894p ps=2.06u w=1.32u l=0.6u
X3 Z a_36_201# VDD VNW pfet_05v0 ad=0.8052p pd=4.54u as=0.5054p ps=2.57u w=1.83u l=0.5u
X4 VSS A2 a_244_201# VPW nfet_05v0 ad=0.3894p pd=2.06u as=0.1056p ps=0.98u w=0.66u l=0.6u
X5 a_36_201# A1 VDD VNW pfet_05v0 ad=0.2132p pd=1.34u as=0.3608p ps=2.52u w=0.82u l=0.5u
.ends

.subckt gf180mcu_fd_sc_mcu9t5v0__inv_1$1 I VDD VSS ZN VNW VPW
X0 ZN I VDD VNW pfet_05v0 ad=0.8052p pd=4.54u as=0.8052p ps=4.54u w=1.83u l=0.5u
X1 ZN I VSS VPW nfet_05v0 ad=0.5808p pd=3.52u as=0.5808p ps=3.52u w=1.32u l=0.6u
.ends

.subckt En_clk_din$1 Enable clk d_in data_in clock vdd vss
Xgf180mcu_fd_sc_mcu9t5v0__and2_1_1 gf180mcu_fd_sc_mcu9t5v0__and2_1_1/A1 clk vdd vss
+ clock vdd vss gf180mcu_fd_sc_mcu9t5v0__and2_1
Xgf180mcu_fd_sc_mcu9t5v0__inv_1$1_0 Enable vdd vss gf180mcu_fd_sc_mcu9t5v0__and2_1_0/A1
+ vdd vss gf180mcu_fd_sc_mcu9t5v0__inv_1$1
Xgf180mcu_fd_sc_mcu9t5v0__inv_1$1_1 Enable vdd vss gf180mcu_fd_sc_mcu9t5v0__and2_1_1/A1
+ vdd vss gf180mcu_fd_sc_mcu9t5v0__inv_1$1
Xgf180mcu_fd_sc_mcu9t5v0__and2_1_0 gf180mcu_fd_sc_mcu9t5v0__and2_1_0/A1 d_in vdd vss
+ data_in vdd vss gf180mcu_fd_sc_mcu9t5v0__and2_1
.ends

.subckt swmatrix_24_by_10 D_out PIN[1] PIN[2] PIN[3] PIN[4] PIN[5] PIN[6] PIN[7] PIN[8]
+ PIN[9] PIN[10] PIN[11] PIN[12] PIN[13] PIN[14] PIN[15] PIN[16] PIN[17] PIN[21] PIN[18]
+ PIN[19] PIN[20] PIN[22] PIN[23] PIN[24] BUS[1] BUS[2] BUS[3] BUS[4] BUS[5] BUS[6]
+ BUS[7] BUS[8] BUS[9] BUS[10] Enable clk d_in vss vdd
Xswmatrix_row_10_8 PIN[9] BUS[2] BUS[5] BUS[6] BUS[7] BUS[8] BUS[9] BUS[10] swmatrix_row_10_8/d_out
+ BUS[4] swmatrix_row_10_7/d_out BUS[3] Enable NO_ClkGen$1_0/phi_2 vdd NO_ClkGen$1_0/phi_1
+ BUS[1] vss swmatrix_row_10
Xswmatrix_row_10_9 PIN[10] BUS[2] BUS[5] BUS[6] BUS[7] BUS[8] BUS[9] BUS[10] swmatrix_row_10_9/d_out
+ BUS[4] swmatrix_row_10_8/d_out BUS[3] Enable NO_ClkGen$1_0/phi_2 vdd NO_ClkGen$1_0/phi_1
+ BUS[1] vss swmatrix_row_10
XNO_ClkGen$1_0 NO_ClkGen$1_0/clk NO_ClkGen$1_0/phi_2 NO_ClkGen$1_0/phi_1 vdd vss NO_ClkGen$1
XEn_clk_din$1_0 Enable clk d_in En_clk_din$1_0/data_in NO_ClkGen$1_0/clk vdd vss En_clk_din$1
Xswmatrix_row_10_20 PIN[21] BUS[2] BUS[5] BUS[6] BUS[7] BUS[8] BUS[9] BUS[10] swmatrix_row_10_20/d_out
+ BUS[4] swmatrix_row_10_19/d_out BUS[3] Enable NO_ClkGen$1_0/phi_2 vdd NO_ClkGen$1_0/phi_1
+ BUS[1] vss swmatrix_row_10
Xswmatrix_row_10_10 PIN[11] BUS[2] BUS[5] BUS[6] BUS[7] BUS[8] BUS[9] BUS[10] swmatrix_row_10_10/d_out
+ BUS[4] swmatrix_row_10_9/d_out BUS[3] Enable NO_ClkGen$1_0/phi_2 vdd NO_ClkGen$1_0/phi_1
+ BUS[1] vss swmatrix_row_10
Xswmatrix_row_10_21 PIN[22] BUS[2] BUS[5] BUS[6] BUS[7] BUS[8] BUS[9] BUS[10] swmatrix_row_10_21/d_out
+ BUS[4] swmatrix_row_10_20/d_out BUS[3] Enable NO_ClkGen$1_0/phi_2 vdd NO_ClkGen$1_0/phi_1
+ BUS[1] vss swmatrix_row_10
Xswmatrix_row_10_11 PIN[12] BUS[2] BUS[5] BUS[6] BUS[7] BUS[8] BUS[9] BUS[10] swmatrix_row_10_11/d_out
+ BUS[4] swmatrix_row_10_10/d_out BUS[3] Enable NO_ClkGen$1_0/phi_2 vdd NO_ClkGen$1_0/phi_1
+ BUS[1] vss swmatrix_row_10
Xswmatrix_row_10_12 PIN[13] BUS[2] BUS[5] BUS[6] BUS[7] BUS[8] BUS[9] BUS[10] swmatrix_row_10_12/d_out
+ BUS[4] swmatrix_row_10_11/d_out BUS[3] Enable NO_ClkGen$1_0/phi_2 vdd NO_ClkGen$1_0/phi_1
+ BUS[1] vss swmatrix_row_10
Xswmatrix_row_10_22 PIN[23] BUS[2] BUS[5] BUS[6] BUS[7] BUS[8] BUS[9] BUS[10] swmatrix_row_10_22/d_out
+ BUS[4] swmatrix_row_10_21/d_out BUS[3] Enable NO_ClkGen$1_0/phi_2 vdd NO_ClkGen$1_0/phi_1
+ BUS[1] vss swmatrix_row_10
Xswmatrix_row_10_23 PIN[24] BUS[2] BUS[5] BUS[6] BUS[7] BUS[8] BUS[9] BUS[10] D_out
+ BUS[4] swmatrix_row_10_22/d_out BUS[3] Enable NO_ClkGen$1_0/phi_2 vdd NO_ClkGen$1_0/phi_1
+ BUS[1] vss swmatrix_row_10
Xswmatrix_row_10_0 PIN[1] BUS[2] BUS[5] BUS[6] BUS[7] BUS[8] BUS[9] BUS[10] swmatrix_row_10_0/d_out
+ BUS[4] En_clk_din$1_0/data_in BUS[3] Enable NO_ClkGen$1_0/phi_2 vdd NO_ClkGen$1_0/phi_1
+ BUS[1] vss swmatrix_row_10
Xswmatrix_row_10_13 PIN[14] BUS[2] BUS[5] BUS[6] BUS[7] BUS[8] BUS[9] BUS[10] swmatrix_row_10_13/d_out
+ BUS[4] swmatrix_row_10_12/d_out BUS[3] Enable NO_ClkGen$1_0/phi_2 vdd NO_ClkGen$1_0/phi_1
+ BUS[1] vss swmatrix_row_10
Xswmatrix_row_10_1 PIN[2] BUS[2] BUS[5] BUS[6] BUS[7] BUS[8] BUS[9] BUS[10] swmatrix_row_10_1/d_out
+ BUS[4] swmatrix_row_10_0/d_out BUS[3] Enable NO_ClkGen$1_0/phi_2 vdd NO_ClkGen$1_0/phi_1
+ BUS[1] vss swmatrix_row_10
Xswmatrix_row_10_14 PIN[15] BUS[2] BUS[5] BUS[6] BUS[7] BUS[8] BUS[9] BUS[10] swmatrix_row_10_14/d_out
+ BUS[4] swmatrix_row_10_13/d_out BUS[3] Enable NO_ClkGen$1_0/phi_2 vdd NO_ClkGen$1_0/phi_1
+ BUS[1] vss swmatrix_row_10
Xswmatrix_row_10_2 PIN[3] BUS[2] BUS[5] BUS[6] BUS[7] BUS[8] BUS[9] BUS[10] swmatrix_row_10_2/d_out
+ BUS[4] swmatrix_row_10_1/d_out BUS[3] Enable NO_ClkGen$1_0/phi_2 vdd NO_ClkGen$1_0/phi_1
+ BUS[1] vss swmatrix_row_10
Xswmatrix_row_10_15 PIN[16] BUS[2] BUS[5] BUS[6] BUS[7] BUS[8] BUS[9] BUS[10] swmatrix_row_10_15/d_out
+ BUS[4] swmatrix_row_10_14/d_out BUS[3] Enable NO_ClkGen$1_0/phi_2 vdd NO_ClkGen$1_0/phi_1
+ BUS[1] vss swmatrix_row_10
Xswmatrix_row_10_3 PIN[4] BUS[2] BUS[5] BUS[6] BUS[7] BUS[8] BUS[9] BUS[10] swmatrix_row_10_3/d_out
+ BUS[4] swmatrix_row_10_2/d_out BUS[3] Enable NO_ClkGen$1_0/phi_2 vdd NO_ClkGen$1_0/phi_1
+ BUS[1] vss swmatrix_row_10
Xswmatrix_row_10_16 PIN[17] BUS[2] BUS[5] BUS[6] BUS[7] BUS[8] BUS[9] BUS[10] swmatrix_row_10_16/d_out
+ BUS[4] swmatrix_row_10_15/d_out BUS[3] Enable NO_ClkGen$1_0/phi_2 vdd NO_ClkGen$1_0/phi_1
+ BUS[1] vss swmatrix_row_10
Xswmatrix_row_10_4 PIN[5] BUS[2] BUS[5] BUS[6] BUS[7] BUS[8] BUS[9] BUS[10] swmatrix_row_10_4/d_out
+ BUS[4] swmatrix_row_10_3/d_out BUS[3] Enable NO_ClkGen$1_0/phi_2 vdd NO_ClkGen$1_0/phi_1
+ BUS[1] vss swmatrix_row_10
Xswmatrix_row_10_17 PIN[18] BUS[2] BUS[5] BUS[6] BUS[7] BUS[8] BUS[9] BUS[10] swmatrix_row_10_17/d_out
+ BUS[4] swmatrix_row_10_16/d_out BUS[3] Enable NO_ClkGen$1_0/phi_2 vdd NO_ClkGen$1_0/phi_1
+ BUS[1] vss swmatrix_row_10
Xswmatrix_row_10_5 PIN[6] BUS[2] BUS[5] BUS[6] BUS[7] BUS[8] BUS[9] BUS[10] swmatrix_row_10_5/d_out
+ BUS[4] swmatrix_row_10_4/d_out BUS[3] Enable NO_ClkGen$1_0/phi_2 vdd NO_ClkGen$1_0/phi_1
+ BUS[1] vss swmatrix_row_10
Xswmatrix_row_10_18 PIN[19] BUS[2] BUS[5] BUS[6] BUS[7] BUS[8] BUS[9] BUS[10] swmatrix_row_10_18/d_out
+ BUS[4] swmatrix_row_10_17/d_out BUS[3] Enable NO_ClkGen$1_0/phi_2 vdd NO_ClkGen$1_0/phi_1
+ BUS[1] vss swmatrix_row_10
Xswmatrix_row_10_6 PIN[7] BUS[2] BUS[5] BUS[6] BUS[7] BUS[8] BUS[9] BUS[10] swmatrix_row_10_6/d_out
+ BUS[4] swmatrix_row_10_5/d_out BUS[3] Enable NO_ClkGen$1_0/phi_2 vdd NO_ClkGen$1_0/phi_1
+ BUS[1] vss swmatrix_row_10
Xswmatrix_row_10_7 PIN[8] BUS[2] BUS[5] BUS[6] BUS[7] BUS[8] BUS[9] BUS[10] swmatrix_row_10_7/d_out
+ BUS[4] swmatrix_row_10_6/d_out BUS[3] Enable NO_ClkGen$1_0/phi_2 vdd NO_ClkGen$1_0/phi_1
+ BUS[1] vss swmatrix_row_10
Xswmatrix_row_10_19 PIN[20] BUS[2] BUS[5] BUS[6] BUS[7] BUS[8] BUS[9] BUS[10] swmatrix_row_10_19/d_out
+ BUS[4] swmatrix_row_10_18/d_out BUS[3] Enable NO_ClkGen$1_0/phi_2 vdd NO_ClkGen$1_0/phi_1
+ BUS[1] vss swmatrix_row_10
.ends

.subckt pfet$21 a_28_144# w_n232_n142# a_94_0# a_n92_n2#
X0 a_94_0# a_28_144# a_n92_n2# w_n232_n142# pfet_03v3 ad=0.2822p pd=2.18u as=0.2822p ps=2.18u w=0.42u l=0.28u
.ends

.subckt nfet$38 a_n84_n2# dw_n710_n652# a_94_0# a_30_144# w_n710_n652#
X0 a_94_0# a_30_144# a_n84_n2# w_n710_n652# nfet_03v3 ad=0.2646p pd=2.1u as=0.2646p ps=2.1u w=0.42u l=0.28u
.ends

.subckt nfet$36 a_n84_n2# dw_n710_n726# a_30_n132# a_94_0# w_n710_n726#
X0 a_94_0# a_30_n132# a_n84_n2# w_n710_n726# nfet_03v3 ad=0.2646p pd=2.1u as=0.2646p ps=2.1u w=0.42u l=0.28u
.ends

.subckt pfet$19 a_28_620# a_n92_0# a_94_0# w_n230_n138#
X0 a_94_0# a_28_620# a_n92_0# w_n230_n138# pfet_03v3 ad=1.82p pd=6.9u as=1.82p ps=6.9u w=2.8u l=0.28u
.ends

.subckt pfet$22 a_28_n136# w_n232_n142# a_94_0# a_n92_n2#
X0 a_94_0# a_28_n136# a_n92_n2# w_n232_n142# pfet_03v3 ad=0.2822p pd=2.18u as=0.2822p ps=2.18u w=0.42u l=0.28u
.ends

.subckt pfet$20 a_28_n136# a_n92_0# a_94_0# w_n230_n138#
X0 a_94_0# a_28_n136# a_n92_0# w_n230_n138# pfet_03v3 ad=1.82p pd=6.9u as=1.82p ps=6.9u w=2.8u l=0.28u
.ends

.subckt nfet$37 dw_n710_n652# a_30_260# a_n84_0# a_94_0# w_n710_n652#
X0 a_94_0# a_30_260# a_n84_0# w_n710_n652# nfet_03v3 ad=0.61p pd=3.22u as=0.61p ps=3.22u w=1u l=0.28u
.ends

.subckt nfet$35 dw_n710_n726# a_30_n132# a_n84_0# a_94_0# w_n710_n726#
X0 a_94_0# a_30_n132# a_n84_0# w_n710_n726# nfet_03v3 ad=1.22p pd=5.22u as=1.22p ps=5.22u w=2u l=0.28u
.ends

.subckt synapse vi v_ctrl v_in ve vdd v_out vss
Xpfet$21_0 v_in vdd vdd m1_856_n14# pfet$21
Xpfet$21_1 m1_856_n14# vdd m1_44_2533# m1_344_2455# pfet$21
Xpfet$21_2 m2_640_1617# vdd vdd m2_640_1617# pfet$21
Xnfet$38_0 m2_640_1617# nfet$38_0/dw_n710_n652# m1_1434_n778# v_in vss nfet$38
Xnfet$36_1 m1_856_n14# nfet$38_0/dw_n710_n652# v_in vss vss nfet$36
Xnfet$36_0 m1_1434_n778# nfet$38_0/dw_n710_n652# ve vss vss nfet$36
Xnfet$36_2 m1_344_2455# nfet$38_0/dw_n710_n652# m1_344_2455# vss vss nfet$36
Xpfet$19_0 v_ctrl v_out m1_1750_2493# vdd pfet$19
Xpfet$22_0 vi vdd vdd m1_44_2533# pfet$22
Xpfet$20_0 m2_640_1617# m1_1750_2493# vdd vdd pfet$20
Xnfet$37_0 nfet$38_0/dw_n710_n652# m1_344_2455# m1_2266_n82# vss vss nfet$37
Xnfet$35_0 nfet$38_0/dw_n710_n652# v_ctrl v_out m1_2266_n82# vss nfet$35
.ends

.subckt AH_neuron vdd Current_in v_bias vout vss
Xnfet$34_0 m1_335_n170# Current_in nfet$34_0/dw_n710_n726# v_bias vss nfet$34
Xnfet$32_0 m1_335_n170# vss nfet$34_0/dw_n710_n726# vout vss nfet$32
Xpfet$17_0 vdd Current_in m2_381_1901# vdd pfet$17
Xcap_mim$3_0 Current_in vout cap_mim$3
Xnfet$33_0 vout vss nfet$34_0/dw_n710_n726# m2_381_1901# vss nfet$33
Xpfet$18_0 m2_381_1901# vout vdd vdd pfet$18
Xnfet$31_0 vss nfet$34_0/dw_n710_n726# m2_381_1901# Current_in vss nfet$31
.ends

.subckt nfet$22 a_n256_n272# a_30_n132# a_n84_0# a_94_0#
X0 a_94_0# a_30_n132# a_n84_0# a_n256_n272# nfet_03v3 ad=1.8788p pd=7.38u as=1.8788p ps=7.38u w=3.08u l=0.28u
.ends

.subckt nfet$23 a_n256_n272# a_30_n132# a_n84_0# a_94_0#
X0 a_94_0# a_30_n132# a_n84_0# a_n256_n272# nfet_03v3 ad=0.5124p pd=2.9u as=0.5124p ps=2.9u w=0.84u l=0.28u
.ends

.subckt nfet$21 a_n84_n2# a_n256_n198# a_1746_0# a_38_n60#
X0 a_1746_0# a_38_n60# a_n84_n2# a_n256_n198# nfet_03v3 ad=0.228p pd=1.98u as=0.228p ps=1.98u w=0.36u l=8.54u
.ends

.subckt pfet$13 w_n352_n286# a_n92_0# a_94_0# a_28_228#
X0 a_94_0# a_28_228# a_n92_0# w_n352_n286# pfet_03v3 ad=0.546p pd=2.98u as=0.546p ps=2.98u w=0.84u l=0.28u
.ends

.subckt ota_1stage$2 vdd vp vn vss vout
Xnfet$22_0 vss vn m3_n530_n14# vout nfet$22
Xnfet$22_1 vss vp m3_n530_n14# m3_n314_178# nfet$22
Xnfet$23_0 vss m3_n1200_n476# m3_n1200_n476# vss nfet$23
Xnfet$23_1 vss m3_n1200_n476# vss m3_n530_n14# nfet$23
Xnfet$21_0 m3_n1200_n476# vss vdd vdd nfet$21
Xpfet$13_0 vdd vdd m3_n314_178# m3_n314_178# pfet$13
Xpfet$13_1 vdd vdd vout m3_n314_178# pfet$13
.ends

.subckt cap_mim$2 m4_n120_n120# m4_0_0#
X0 m4_0_0# m4_n120_n120# cap_mim_2f0_m4m5_noshield c_width=9u c_length=9u
.ends

.subckt nfet$29 a_n256_n198# a_38_n60# a_n84_0# a_138_0#
X0 a_138_0# a_38_n60# a_n84_0# a_n256_n198# nfet_03v3 ad=0.305p pd=2.22u as=0.305p ps=2.22u w=0.5u l=0.5u
.ends

.subckt pfet$14 w_n352_n286# a_n92_0# a_94_0# a_28_228#
X0 a_94_0# a_28_228# a_n92_0# w_n352_n286# pfet_03v3 ad=0.546p pd=2.98u as=0.546p ps=2.98u w=0.84u l=0.28u
.ends

.subckt nfet$27 a_n256_n198# a_30_228# a_n84_0# a_94_0#
X0 a_94_0# a_30_228# a_n84_0# a_n256_n198# nfet_03v3 ad=0.5124p pd=2.9u as=0.5124p ps=2.9u w=0.84u l=0.28u
.ends

.subckt nfet$25 a_n256_n272# a_30_n132# a_n84_0# a_94_0#
X0 a_94_0# a_30_n132# a_n84_0# a_n256_n272# nfet_03v3 ad=1.8788p pd=7.38u as=1.8788p ps=7.38u w=3.08u l=0.28u
.ends

.subckt pfet$15 a_28_n136# a_n92_0# a_94_0# w_n352_n362#
X0 a_94_0# a_28_n136# a_n92_0# w_n352_n362# pfet_03v3 ad=1.092p pd=4.66u as=1.092p ps=4.66u w=1.68u l=0.28u
.ends

.subckt cap_mim$1 m4_n120_n120# m4_0_0#
X0 m4_0_0# m4_n120_n120# cap_mim_2f0_m4m5_noshield c_width=9u c_length=9u
.ends

.subckt nfet$28 a_n256_n198# a_30_172# a_n84_0# a_94_0#
X0 a_94_0# a_30_172# a_n84_0# a_n256_n198# nfet_03v3 ad=0.3416p pd=2.34u as=0.3416p ps=2.34u w=0.56u l=0.28u
.ends

.subckt nfet$26 a_n256_n272# a_30_n132# a_n84_0# a_94_0#
X0 a_94_0# a_30_n132# a_n84_0# a_n256_n272# nfet_03v3 ad=0.5124p pd=2.9u as=0.5124p ps=2.9u w=0.84u l=0.28u
.ends

.subckt nfet$24 a_n84_n2# a_n256_n198# a_1746_0# a_38_n60#
X0 a_1746_0# a_38_n60# a_n84_n2# a_n256_n198# nfet_03v3 ad=0.228p pd=1.98u as=0.228p ps=1.98u w=0.36u l=8.54u
.ends

.subckt ota_2stage vdd vp vn vss vout
Xpfet$14_0 vdd vdd m3_n314_178# m3_n314_178# pfet$14
Xpfet$14_1 vdd m3_210_178# vdd m3_n314_178# pfet$14
Xnfet$27_0 vss m3_n1200_n227# m3_n1200_n227# vss nfet$27
Xnfet$25_0 vss vp m3_210_178# m3_n530_n14# nfet$25
Xnfet$25_1 vss vn m3_n530_n14# m3_n314_178# nfet$25
Xpfet$15_0 m3_210_178# vdd vout vdd pfet$15
Xcap_mim$1_0 vout m3_210_178# cap_mim$1
Xnfet$28_0 vss m3_n1200_n227# vss vout nfet$28
Xnfet$26_0 vss m3_n1200_n227# vss m3_n530_n14# nfet$26
Xnfet$24_0 m3_n1200_n227# vss vdd vdd nfet$24
.ends

.subckt pfet$11 a_n92_0# a_35_n136# a_108_0# w_n230_n138#
X0 a_108_0# a_35_n136# a_n92_0# w_n230_n138# pfet_03v3 ad=0.65p pd=3.3u as=0.65p ps=3.3u w=1u l=0.35u
.ends

.subckt nfet$19 a_216_0# a_30_260# a_n84_0# a_94_0#
X0 a_94_0# a_30_260# a_n84_0# a_216_0# nfet_03v3 ad=0.61p pd=3.22u as=0.61p ps=3.22u w=1u l=0.28u
.ends

.subckt switch$1 out cntrl in vdd vss
Xpfet$11_0 m2_n331_n296# cntrl vdd vdd pfet$11
Xpfet$11_1 in m2_n331_n296# out vdd pfet$11
Xnfet$19_0 vss cntrl m2_n331_n296# vss nfet$19
Xnfet$19_1 vss cntrl in out nfet$19
.ends

.subckt nfet$20 a_216_0# a_30_260# a_n84_0# a_94_0#
X0 a_94_0# a_30_260# a_n84_0# a_216_0# nfet_03v3 ad=0.61p pd=3.22u as=0.61p ps=3.22u w=1u l=0.28u
.ends

.subckt pfet$12 a_n92_0# a_35_n136# a_108_0# w_n230_n138#
X0 a_108_0# a_35_n136# a_n92_0# w_n230_n138# pfet_03v3 ad=0.65p pd=3.3u as=0.65p ps=3.3u w=1u l=0.35u
.ends

.subckt conmutator$1 in2 vdd out cntrl in1 vss
Xnfet$20_0 vss m2_n850_n472# out in1 nfet$20
Xnfet$20_1 vss cntrl in2 out nfet$20
Xpfet$12_0 out cntrl in1 vdd pfet$12
Xnfet$20_2 vss cntrl m2_n850_n472# vss nfet$20
Xpfet$12_1 in2 m2_n850_n472# out vdd pfet$12
Xpfet$12_2 m2_n850_n472# cntrl vdd vdd pfet$12
.ends
