* NGSPICE file created from DFF_10_row.ext - technology: gf180mcuD

.subckt DFF_10_row_pex D_in Q[1] Q[2] Q[3] Q[4] Q[5] Q[6] Q[7] Q[8] Q[9] Q[10] gc[1] gc[2] gc[3] gc[4] gc[5] gc[6] gc[7] gc[8]
+ gc[9] gc[10] PHI_1 PHI_2 EN VDD VSS
X0 a_20582_38# a_20238_158# VSS.t62 VSS.t61 nfet_05v0 ad=0.3476p pd=2.46u as=0.2054p ps=1.31u w=0.79u l=0.6u
X1 a_29738_n384# a_29270_n402# VDD.t282 VDD.t281 pfet_05v0 ad=0.44p pd=2.88u as=0.476p ps=2.18u w=1u l=0.5u
X2 a_32570_n387# DFF_2phase_1$1_4.gf180mcu_fd_sc_mcu9t5v0__latq_1_1.Q VSS.t166 VSS.t165 nfet_05v0 ad=83.99999f pd=0.94u as=0.308p ps=2.28u w=0.7u l=0.6u
X3 VSS.t325 a_1862_38# a_1762_n387# VSS.t324 nfet_05v0 ad=0.2054p pd=1.31u as=0.263p ps=1.49u w=0.79u l=0.6u
X4 a_8102_38# a_7758_158# VSS.t176 VSS.t175 nfet_05v0 ad=0.3476p pd=2.46u as=0.2054p ps=1.31u w=0.79u l=0.6u
X5 VDD.t62 a_20238_158# Q[4].t1 VDD.t61 pfet_05v0 ad=0.8052p pd=4.54u as=0.8052p ps=4.54u w=1.83u l=0.5u
X6 DFF_2phase_1$1_5.gf180mcu_fd_sc_mcu9t5v0__nand2_1_0.ZN EN.t0 a_27943_n425# VSS.t224 nfet_05v0 ad=0.5808p pd=3.52u as=0.2112p ps=1.64u w=1.32u l=0.6u
X7 a_55214_158# a_54230_n402# a_55066_158# VDD.t203 pfet_05v0 ad=0.26p pd=1.52u as=0.12p ps=1.24u w=1u l=0.5u
X8 a_5538_n387# a_4310_n402# a_5294_158# VSS.t153 nfet_05v0 ad=0.263p pd=1.49u as=0.182p ps=1.22u w=0.7u l=0.6u
X9 VDD.t26 a_14342_38# a_14202_158# VDD.t25 pfet_05v0 ad=0.3588p pd=1.9u as=0.426p ps=2.08u w=1.38u l=0.5u
X10 VSS.t108 a_36838_38# a_36738_n387# VSS.t107 nfet_05v0 ad=0.2054p pd=1.31u as=0.263p ps=1.49u w=0.79u l=0.6u
X11 VSS.t243 PHI_1.t0 a_29270_n402# VSS.t242 nfet_05v0 ad=0.263p pd=1.49u as=0.3476p ps=2.46u w=0.79u l=0.6u
X12 a_29738_n384# a_29270_n402# VSS.t274 VSS.t273 nfet_05v0 ad=0.308p pd=2.28u as=0.263p ps=1.49u w=0.7u l=0.6u
X13 VSS.t158 a_30254_158# DFF_2phase_1$1_4.gf180mcu_fd_sc_mcu9t5v0__latq_1_1.Q VSS.t157 nfet_05v0 ad=0.5808p pd=3.52u as=0.5808p ps=3.52u w=1.32u l=0.6u
X14 VSS.t217 PHI_2.t0 a_534_n402# VSS.t216 nfet_05v0 ad=0.263p pd=1.49u as=0.3476p ps=2.46u w=0.79u l=0.6u
X15 VDD.t100 a_49318_38# a_49178_158# VDD.t99 pfet_05v0 ad=0.3588p pd=1.9u as=0.426p ps=2.08u w=1.38u l=0.5u
X16 a_11738_158# a_11018_n384# a_11534_158# VDD.t267 pfet_05v0 ad=0.426p pd=2.08u as=0.26p ps=1.52u w=1u l=0.5u
X17 a_23866_158# Q[4].t2 VDD.t141 VDD.t140 pfet_05v0 ad=0.12p pd=1.24u as=0.44p ps=2.88u w=1u l=0.5u
X18 VSS.t263 a_32718_158# Q[6].t0 VSS.t262 nfet_05v0 ad=0.5808p pd=3.52u as=0.5808p ps=3.52u w=1.32u l=0.6u
X19 VSS.t197 a_45542_38# a_45442_n387# VSS.t196 nfet_05v0 ad=0.2054p pd=1.31u as=0.263p ps=1.49u w=0.79u l=0.6u
X20 gc[2].t1 DFF_2phase_1$1_9.gf180mcu_fd_sc_mcu9t5v0__nand2_1_0.ZN VDD.t106 VDD.t105 pfet_05v0 ad=0.8052p pd=4.54u as=0.8052p ps=4.54u w=1.83u l=0.5u
X21 gc[2].t0 DFF_2phase_1$1_9.gf180mcu_fd_sc_mcu9t5v0__nand2_1_0.ZN VSS.t112 VSS.t111 nfet_05v0 ad=0.5808p pd=3.52u as=0.5808p ps=3.52u w=1.32u l=0.6u
X22 a_21703_n425# Q[4].t3 VSS.t240 VSS.t239 nfet_05v0 ad=0.2112p pd=1.64u as=0.5808p ps=3.52u w=1.32u l=0.6u
X23 a_38958_158# a_37974_n402# a_38810_158# VDD.t54 pfet_05v0 ad=0.26p pd=1.52u as=0.12p ps=1.24u w=1u l=0.5u
X24 VSS.t219 PHI_2.t1 a_37974_n402# VSS.t218 nfet_05v0 ad=0.263p pd=1.49u as=0.3476p ps=2.46u w=0.79u l=0.6u
X25 a_38442_n384# a_37974_n402# VSS.t54 VSS.t53 nfet_05v0 ad=0.308p pd=2.28u as=0.263p ps=1.49u w=0.7u l=0.6u
X26 VSS.t6 a_11878_38# a_11778_n387# VSS.t5 nfet_05v0 ad=0.2054p pd=1.31u as=0.263p ps=1.49u w=0.79u l=0.6u
X27 a_45198_158# a_44214_n402# a_45050_158# VDD.t24 pfet_05v0 ad=0.26p pd=1.52u as=0.12p ps=1.24u w=1u l=0.5u
X28 a_42734_158# a_42218_n384# a_42586_n387# VSS.t241 nfet_05v0 ad=0.182p pd=1.22u as=83.99999f ps=0.94u w=0.7u l=0.6u
X29 a_49218_n387# a_47990_n402# a_48974_158# VSS.t9 nfet_05v0 ad=0.263p pd=1.49u as=0.182p ps=1.22u w=0.7u l=0.6u
X30 a_55558_38# a_55214_158# VDD.t151 VDD.t150 pfet_05v0 ad=0.6072p pd=3.64u as=0.3588p ps=1.9u w=1.38u l=0.5u
X31 VSS.t245 PHI_1.t1 a_41750_n402# VSS.t244 nfet_05v0 ad=0.263p pd=1.49u as=0.3476p ps=2.46u w=0.79u l=0.6u
X32 a_55558_38# a_55214_158# VSS.t147 VSS.t146 nfet_05v0 ad=0.3476p pd=2.46u as=0.2054p ps=1.31u w=0.79u l=0.6u
X33 gc[8].t0 DFF_2phase_1$1_2.gf180mcu_fd_sc_mcu9t5v0__nand2_1_0.ZN VSS.t307 VSS.t306 nfet_05v0 ad=0.5808p pd=3.52u as=0.5808p ps=3.52u w=1.32u l=0.6u
X34 VDD.t251 PHI_1.t2 a_10550_n402# VDD.t250 pfet_05v0 ad=0.476p pd=2.18u as=0.6072p ps=3.64u w=1.38u l=0.5u
X35 a_11878_38# a_11534_158# VDD.t339 VDD.t338 pfet_05v0 ad=0.6072p pd=3.64u as=0.3588p ps=1.9u w=1.38u l=0.5u
X36 a_13482_n384# a_13014_n402# VDD.t57 VDD.t56 pfet_05v0 ad=0.44p pd=2.88u as=0.476p ps=2.18u w=1u l=0.5u
X37 VSS.t114 a_20582_38# a_20482_n387# VSS.t113 nfet_05v0 ad=0.2054p pd=1.31u as=0.263p ps=1.49u w=0.79u l=0.6u
X38 VDD.t33 a_n946_158# DFF_2phase_1$1_8.gf180mcu_fd_sc_mcu9t5v0__latq_1_1.Q VDD.t32 pfet_05v0 ad=0.8052p pd=4.54u as=0.8052p ps=4.54u w=1.83u l=0.5u
X39 a_26822_38# a_26478_158# VSS.t139 VSS.t138 nfet_05v0 ad=0.3476p pd=2.46u as=0.2054p ps=1.31u w=0.79u l=0.6u
X40 VSS.t234 a_8102_38# a_8002_n387# VSS.t233 nfet_05v0 ad=0.2054p pd=1.31u as=0.263p ps=1.49u w=0.79u l=0.6u
X41 VSS.t116 PHI_2.t2 a_13014_n402# VSS.t115 nfet_05v0 ad=0.263p pd=1.49u as=0.3476p ps=2.46u w=0.79u l=0.6u
X42 a_24258_n387# a_23030_n402# a_24014_158# VSS.t284 nfet_05v0 ad=0.263p pd=1.49u as=0.182p ps=1.22u w=0.7u l=0.6u
X43 a_55418_158# a_54698_n384# a_55214_158# VDD.t0 pfet_05v0 ad=0.426p pd=2.08u as=0.26p ps=1.52u w=1u l=0.5u
X44 a_50922_n384# a_50454_n402# VSS.t46 VSS.t45 nfet_05v0 ad=0.308p pd=2.28u as=0.263p ps=1.49u w=0.7u l=0.6u
X45 VSS.t118 PHI_2.t3 a_50454_n402# VSS.t117 nfet_05v0 ad=0.263p pd=1.49u as=0.3476p ps=2.46u w=0.79u l=0.6u
X46 a_n1094_n387# D_in.t0 VSS.t289 VSS.t288 nfet_05v0 ad=83.99999f pd=0.94u as=0.308p ps=2.28u w=0.7u l=0.6u
X47 VDD.t180 a_7758_158# Q[2].t1 VDD.t179 pfet_05v0 ad=0.8052p pd=4.54u as=0.8052p ps=4.54u w=1.83u l=0.5u
X48 a_32718_158# a_31734_n402# a_32570_158# VDD.t43 pfet_05v0 ad=0.26p pd=1.52u as=0.12p ps=1.24u w=1u l=0.5u
X49 a_42586_n387# Q[7].t2 VSS.t185 VSS.t184 nfet_05v0 ad=83.99999f pd=0.94u as=0.308p ps=2.28u w=0.7u l=0.6u
X50 VDD.t116 PHI_2.t4 a_56694_n402# VDD.t115 pfet_05v0 ad=0.476p pd=2.18u as=0.6072p ps=3.64u w=1.38u l=0.5u
X51 DFF_2phase_1$1_6.gf180mcu_fd_sc_mcu9t5v0__nand2_1_0.ZN EN.t1 a_21703_n425# VSS.t225 nfet_05v0 ad=0.5808p pd=3.52u as=0.2112p ps=1.64u w=1.32u l=0.6u
X52 a_26822_38# a_26478_158# VDD.t137 VDD.t136 pfet_05v0 ad=0.6072p pd=3.64u as=0.3588p ps=1.9u w=1.38u l=0.5u
X53 a_7758_158# a_7242_n384# a_7610_n387# VSS.t128 nfet_05v0 ad=0.182p pd=1.22u as=83.99999f ps=0.94u w=0.7u l=0.6u
X54 DFF_2phase_1$1_9.gf180mcu_fd_sc_mcu9t5v0__nand2_1_0.ZN EN.t2 a_9223_n425# VSS.t226 nfet_05v0 ad=0.5808p pd=3.52u as=0.2112p ps=1.64u w=1.32u l=0.6u
X55 a_26722_n387# a_25494_n402# a_26478_158# VSS.t150 nfet_05v0 ad=0.263p pd=1.49u as=0.182p ps=1.22u w=0.7u l=0.6u
X56 VDD.t110 PHI_2.t5 a_13014_n402# VDD.t109 pfet_05v0 ad=0.476p pd=2.18u as=0.6072p ps=3.64u w=1.38u l=0.5u
X57 gc[5].t0 DFF_2phase_1$1_5.gf180mcu_fd_sc_mcu9t5v0__nand2_1_0.ZN VSS.t183 VSS.t182 nfet_05v0 ad=0.5808p pd=3.52u as=0.5808p ps=3.52u w=1.32u l=0.6u
X58 a_57162_n384# a_56694_n402# VDD.t220 VDD.t219 pfet_05v0 ad=0.44p pd=2.88u as=0.476p ps=2.18u w=1u l=0.5u
X59 VSS.t271 a_18118_38# a_18018_n387# VSS.t270 nfet_05v0 ad=0.2054p pd=1.31u as=0.263p ps=1.49u w=0.79u l=0.6u
X60 VDD.t108 a_20582_38# a_20442_158# VDD.t107 pfet_05v0 ad=0.3588p pd=1.9u as=0.426p ps=2.08u w=1.38u l=0.5u
X61 a_51290_n387# DFF_2phase_1$1_1.gf180mcu_fd_sc_mcu9t5v0__latq_1_1.Q VSS.t64 VSS.t63 nfet_05v0 ad=83.99999f pd=0.94u as=0.308p ps=2.28u w=0.7u l=0.6u
X62 a_45050_n387# DFF_2phase_1$1_2.gf180mcu_fd_sc_mcu9t5v0__latq_1_1.Q VSS.t266 VSS.t265 nfet_05v0 ad=83.99999f pd=0.94u as=0.308p ps=2.28u w=0.7u l=0.6u
X63 VDD.t236 EN.t3 DFF_2phase_1$1_2.gf180mcu_fd_sc_mcu9t5v0__nand2_1_0.ZN VDD.t235 pfet_05v0 ad=0.7238p pd=4.17u as=0.4277p ps=2.165u w=1.645u l=0.5u
X64 VSS.t320 a_55558_38# a_55458_n387# VSS.t319 nfet_05v0 ad=0.2054p pd=1.31u as=0.263p ps=1.49u w=0.79u l=0.6u
X65 VDD.t224 a_48974_158# DFF_2phase_1$1_1.gf180mcu_fd_sc_mcu9t5v0__latq_1_1.Q VDD.t223 pfet_05v0 ad=0.8052p pd=4.54u as=0.8052p ps=4.54u w=1.83u l=0.5u
X66 a_1002_n384# a_534_n402# VDD.t67 VDD.t66 pfet_05v0 ad=0.44p pd=2.88u as=0.476p ps=2.18u w=1u l=0.5u
X67 a_7242_n384# a_6774_n402# VDD.t215 VDD.t214 pfet_05v0 ad=0.44p pd=2.88u as=0.476p ps=2.18u w=1u l=0.5u
X68 a_5146_n387# Q[1].t2 VSS.t228 VSS.t227 nfet_05v0 ad=83.99999f pd=0.94u as=0.308p ps=2.28u w=0.7u l=0.6u
X69 VDD.t332 a_55558_38# a_55418_158# VDD.t331 pfet_05v0 ad=0.3588p pd=1.9u as=0.426p ps=2.08u w=1.38u l=0.5u
X70 a_48458_n384# a_47990_n402# VSS.t8 VSS.t7 nfet_05v0 ad=0.308p pd=2.28u as=0.263p ps=1.49u w=0.7u l=0.6u
X71 VSS.t230 PHI_1.t3 a_47990_n402# VSS.t229 nfet_05v0 ad=0.263p pd=1.49u as=0.3476p ps=2.46u w=0.79u l=0.6u
X72 VSS.t301 a_42734_158# DFF_2phase_1$1_2.gf180mcu_fd_sc_mcu9t5v0__latq_1_1.Q VSS.t300 nfet_05v0 ad=0.5808p pd=3.52u as=0.5808p ps=3.52u w=1.32u l=0.6u
X73 a_n946_158# a_n1462_n384# a_n1094_n387# VSS.t58 nfet_05v0 ad=0.182p pd=1.22u as=83.99999f ps=0.94u w=0.7u l=0.6u
X74 a_32922_158# a_32202_n384# a_32718_158# VDD.t266 pfet_05v0 ad=0.426p pd=2.08u as=0.26p ps=1.52u w=1u l=0.5u
X75 a_45050_158# DFF_2phase_1$1_2.gf180mcu_fd_sc_mcu9t5v0__latq_1_1.Q VDD.t274 VDD.t273 pfet_05v0 ad=0.12p pd=1.24u as=0.44p ps=2.88u w=1u l=0.5u
X76 VDD.t238 EN.t4 DFF_2phase_1$1_9.gf180mcu_fd_sc_mcu9t5v0__nand2_1_0.ZN VDD.t237 pfet_05v0 ad=0.7238p pd=4.17u as=0.4277p ps=2.165u w=1.645u l=0.5u
X77 a_51290_158# DFF_2phase_1$1_1.gf180mcu_fd_sc_mcu9t5v0__latq_1_1.Q VDD.t64 VDD.t63 pfet_05v0 ad=0.12p pd=1.24u as=0.44p ps=2.88u w=1u l=0.5u
X78 VDD.t228 PHI_1.t4 a_47990_n402# VDD.t227 pfet_05v0 ad=0.476p pd=2.18u as=0.6072p ps=3.64u w=1.38u l=0.5u
X79 a_1862_38# a_1518_158# VSS.t13 VSS.t12 nfet_05v0 ad=0.3476p pd=2.46u as=0.2054p ps=1.31u w=0.79u l=0.6u
X80 gc[7].t0 DFF_2phase_1$1_3.gf180mcu_fd_sc_mcu9t5v0__nand2_1_0.ZN VSS.t87 VSS.t86 nfet_05v0 ad=0.5808p pd=3.52u as=0.5808p ps=3.52u w=1.32u l=0.6u
X81 gc[8].t1 DFF_2phase_1$1_2.gf180mcu_fd_sc_mcu9t5v0__nand2_1_0.ZN VDD.t311 VDD.t310 pfet_05v0 ad=0.8052p pd=4.54u as=0.8052p ps=4.54u w=1.83u l=0.5u
X82 a_24218_158# a_23498_n384# a_24014_158# VDD.t38 pfet_05v0 ad=0.426p pd=2.08u as=0.26p ps=1.52u w=1u l=0.5u
X83 a_36346_158# Q[6].t2 VDD.t320 VDD.t319 pfet_05v0 ad=0.12p pd=1.24u as=0.44p ps=2.88u w=1u l=0.5u
X84 a_57162_n384# a_56694_n402# VSS.t215 VSS.t214 nfet_05v0 ad=0.308p pd=2.28u as=0.263p ps=1.49u w=0.7u l=0.6u
X85 DFF_2phase_1$1_8.gf180mcu_fd_sc_mcu9t5v0__nand2_1_0.ZN Q[1].t3 VDD.t226 VDD.t225 pfet_05v0 ad=0.4277p pd=2.165u as=0.7238p ps=4.17u w=1.645u l=0.5u
X86 a_20090_158# DFF_2phase_1$1_6.gf180mcu_fd_sc_mcu9t5v0__latq_1_1.Q VDD.t48 VDD.t47 pfet_05v0 ad=0.12p pd=1.24u as=0.44p ps=2.88u w=1u l=0.5u
X87 VSS.t40 a_30598_38# a_30498_n387# VSS.t39 nfet_05v0 ad=0.2054p pd=1.31u as=0.263p ps=1.49u w=0.79u l=0.6u
X88 a_1370_158# DFF_2phase_1$1_8.gf180mcu_fd_sc_mcu9t5v0__latq_1_1.Q VDD.t301 VDD.t300 pfet_05v0 ad=0.12p pd=1.24u as=0.44p ps=2.88u w=1u l=0.5u
X89 VSS.t232 PHI_1.t5 a_23030_n402# VSS.t231 nfet_05v0 ad=0.263p pd=1.49u as=0.3476p ps=2.46u w=0.79u l=0.6u
X90 a_26478_158# a_25962_n384# a_26330_n387# VSS.t49 nfet_05v0 ad=0.182p pd=1.22u as=83.99999f ps=0.94u w=0.7u l=0.6u
X91 a_35978_n384# a_35510_n402# VDD.t76 VDD.t75 pfet_05v0 ad=0.44p pd=2.88u as=0.476p ps=2.18u w=1u l=0.5u
X92 a_36838_38# a_36494_158# VSS.t37 VSS.t36 nfet_05v0 ad=0.3476p pd=2.46u as=0.2054p ps=1.31u w=0.79u l=0.6u
X93 a_n702_n387# a_n1930_n402# a_n946_158# VSS.t29 nfet_05v0 ad=0.263p pd=1.49u as=0.182p ps=1.22u w=0.7u l=0.6u
X94 VDD.t162 a_30254_158# DFF_2phase_1$1_4.gf180mcu_fd_sc_mcu9t5v0__latq_1_1.Q VDD.t161 pfet_05v0 ad=0.8052p pd=4.54u as=0.8052p ps=4.54u w=1.83u l=0.5u
X95 VDD.t102 a_36838_38# a_36698_158# VDD.t101 pfet_05v0 ad=0.3588p pd=1.9u as=0.426p ps=2.08u w=1.38u l=0.5u
X96 VDD.t6 a_58022_38# a_57882_158# VDD.t5 pfet_05v0 ad=0.3588p pd=1.9u as=0.426p ps=2.08u w=1.38u l=0.5u
X97 a_59143_n425# Q[10].t2 VSS.t286 VSS.t285 nfet_05v0 ad=0.2112p pd=1.64u as=0.5808p ps=3.52u w=1.32u l=0.6u
X98 a_19722_n384# a_19254_n402# VDD.t72 VDD.t71 pfet_05v0 ad=0.44p pd=2.88u as=0.476p ps=2.18u w=1u l=0.5u
X99 VSS.t85 a_24014_158# DFF_2phase_1$1_5.gf180mcu_fd_sc_mcu9t5v0__latq_1_1.Q VSS.t84 nfet_05v0 ad=0.5808p pd=3.52u as=0.5808p ps=3.52u w=1.32u l=0.6u
X100 a_1002_n384# a_534_n402# VSS.t67 VSS.t66 nfet_05v0 ad=0.308p pd=2.28u as=0.263p ps=1.49u w=0.7u l=0.6u
X101 gc[1].t0 DFF_2phase_1$1_8.gf180mcu_fd_sc_mcu9t5v0__nand2_1_0.ZN VSS.t110 VSS.t109 nfet_05v0 ad=0.5808p pd=3.52u as=0.5808p ps=3.52u w=1.32u l=0.6u
X102 VDD.t145 PHI_1.t6 a_29270_n402# VDD.t144 pfet_05v0 ad=0.476p pd=2.18u as=0.6072p ps=3.64u w=1.38u l=0.5u
X103 a_39302_38# a_38958_158# VSS.t98 VSS.t97 nfet_05v0 ad=0.3476p pd=2.46u as=0.2054p ps=1.31u w=0.79u l=0.6u
X104 VSS.t174 a_7758_158# Q[2].t0 VSS.t173 nfet_05v0 ad=0.5808p pd=3.52u as=0.5808p ps=3.52u w=1.32u l=0.6u
X105 gc[5].t1 DFF_2phase_1$1_5.gf180mcu_fd_sc_mcu9t5v0__nand2_1_0.ZN VDD.t192 VDD.t191 pfet_05v0 ad=0.8052p pd=4.54u as=0.8052p ps=4.54u w=1.83u l=0.5u
X106 a_36738_n387# a_35510_n402# a_36494_158# VSS.t76 nfet_05v0 ad=0.263p pd=1.49u as=0.182p ps=1.22u w=0.7u l=0.6u
X107 a_8002_n387# a_6774_n402# a_7758_158# VSS.t202 nfet_05v0 ad=0.263p pd=1.49u as=0.182p ps=1.22u w=0.7u l=0.6u
X108 a_17626_n387# Q[3].t2 VSS.t121 VSS.t120 nfet_05v0 ad=83.99999f pd=0.94u as=0.308p ps=2.28u w=0.7u l=0.6u
X109 a_33062_38# a_32718_158# VDD.t271 VDD.t270 pfet_05v0 ad=0.6072p pd=3.64u as=0.3588p ps=1.9u w=1.38u l=0.5u
X110 a_36494_158# a_35510_n402# a_36346_158# VDD.t74 pfet_05v0 ad=0.26p pd=1.52u as=0.12p ps=1.24u w=1u l=0.5u
X111 DFF_2phase_1$1_4.gf180mcu_fd_sc_mcu9t5v0__nand2_1_0.ZN Q[6].t3 VDD.t322 VDD.t321 pfet_05v0 ad=0.4277p pd=2.165u as=0.7238p ps=4.17u w=1.645u l=0.5u
X112 a_30106_158# Q[5].t2 VDD.t324 VDD.t323 pfet_05v0 ad=0.12p pd=1.24u as=0.44p ps=2.88u w=1u l=0.5u
X113 a_55066_n387# Q[9].t2 VSS.t323 VSS.t322 nfet_05v0 ad=83.99999f pd=0.94u as=0.308p ps=2.28u w=0.7u l=0.6u
X114 VDD.t337 a_11534_158# DFF_2phase_1$1_7.gf180mcu_fd_sc_mcu9t5v0__latq_1_1.Q VDD.t336 pfet_05v0 ad=0.8052p pd=4.54u as=0.8052p ps=4.54u w=1.83u l=0.5u
X115 a_13850_158# DFF_2phase_1$1_7.gf180mcu_fd_sc_mcu9t5v0__latq_1_1.Q VDD.t78 VDD.t77 pfet_05v0 ad=0.12p pd=1.24u as=0.44p ps=2.88u w=1u l=0.5u
X116 VDD.t172 a_39302_38# a_39162_158# VDD.t171 pfet_05v0 ad=0.3588p pd=1.9u as=0.426p ps=2.08u w=1.38u l=0.5u
X117 DFF_2phase_1$1_3.gf180mcu_fd_sc_mcu9t5v0__nand2_1_0.ZN EN.t5 a_40423_n425# VSS.t235 nfet_05v0 ad=0.5808p pd=3.52u as=0.2112p ps=1.64u w=1.32u l=0.6u
X118 a_14342_38# a_13998_158# VSS.t135 VSS.t134 nfet_05v0 ad=0.3476p pd=2.46u as=0.2054p ps=1.31u w=0.79u l=0.6u
X119 a_18118_38# a_17774_158# VSS.t164 VSS.t163 nfet_05v0 ad=0.3476p pd=2.46u as=0.2054p ps=1.31u w=0.79u l=0.6u
X120 VDD.t263 EN.t6 DFF_2phase_1$1_1.gf180mcu_fd_sc_mcu9t5v0__nand2_1_0.ZN VDD.t262 pfet_05v0 ad=0.7238p pd=4.17u as=0.4277p ps=2.165u w=1.645u l=0.5u
X121 a_45442_n387# a_44214_n402# a_45198_158# VSS.t24 nfet_05v0 ad=0.263p pd=1.49u as=0.182p ps=1.22u w=0.7u l=0.6u
X122 a_26330_n387# DFF_2phase_1$1_5.gf180mcu_fd_sc_mcu9t5v0__latq_1_1.Q VSS.t160 VSS.t159 nfet_05v0 ad=83.99999f pd=0.94u as=0.308p ps=2.28u w=0.7u l=0.6u
X123 VDD.t147 PHI_1.t7 a_54230_n402# VDD.t146 pfet_05v0 ad=0.476p pd=2.18u as=0.6072p ps=3.64u w=1.38u l=0.5u
X124 a_5638_38# a_5294_158# VDD.t19 VDD.t18 pfet_05v0 ad=0.6072p pd=3.64u as=0.3588p ps=1.9u w=1.38u l=0.5u
X125 VDD.t125 a_45198_158# Q[8].t1 VDD.t124 pfet_05v0 ad=0.8052p pd=4.54u as=0.8052p ps=4.54u w=1.83u l=0.5u
X126 a_14342_38# a_13998_158# VDD.t133 VDD.t132 pfet_05v0 ad=0.6072p pd=3.64u as=0.3588p ps=1.9u w=1.38u l=0.5u
X127 a_13482_n384# a_13014_n402# VSS.t57 VSS.t56 nfet_05v0 ad=0.308p pd=2.28u as=0.263p ps=1.49u w=0.7u l=0.6u
X128 DFF_2phase_1$1_0.gf180mcu_fd_sc_mcu9t5v0__nand2_1_0.ZN EN.t7 a_59143_n425# VSS.t252 nfet_05v0 ad=0.5808p pd=3.52u as=0.2112p ps=1.64u w=1.32u l=0.6u
X129 DFF_2phase_1$1_7.gf180mcu_fd_sc_mcu9t5v0__nand2_1_0.ZN Q[3].t3 VDD.t119 VDD.t118 pfet_05v0 ad=0.4277p pd=2.165u as=0.7238p ps=4.17u w=1.645u l=0.5u
X130 a_18018_n387# a_16790_n402# a_17774_158# VSS.t310 nfet_05v0 ad=0.263p pd=1.49u as=0.182p ps=1.22u w=0.7u l=0.6u
X131 a_24014_158# a_23030_n402# a_23866_158# VDD.t290 pfet_05v0 ad=0.26p pd=1.52u as=0.12p ps=1.24u w=1u l=0.5u
X132 a_n742_158# a_n1462_n384# a_n946_158# VDD.t58 pfet_05v0 ad=0.426p pd=2.08u as=0.26p ps=1.52u w=1u l=0.5u
X133 a_1518_158# a_1002_n384# a_1370_n387# VSS.t94 nfet_05v0 ad=0.182p pd=1.22u as=83.99999f ps=0.94u w=0.7u l=0.6u
X134 DFF_2phase_1$1_8.gf180mcu_fd_sc_mcu9t5v0__nand2_1_0.ZN EN.t8 a_2983_n425# VSS.t253 nfet_05v0 ad=0.5808p pd=3.52u as=0.2112p ps=1.64u w=1.32u l=0.6u
X135 a_5294_158# a_4778_n384# a_5146_n387# VSS.t79 nfet_05v0 ad=0.182p pd=1.22u as=83.99999f ps=0.94u w=0.7u l=0.6u
X136 a_30254_158# a_29270_n402# a_30106_158# VDD.t280 pfet_05v0 ad=0.26p pd=1.52u as=0.12p ps=1.24u w=1u l=0.5u
X137 gc[4].t0 DFF_2phase_1$1_6.gf180mcu_fd_sc_mcu9t5v0__nand2_1_0.ZN VSS.t278 VSS.t277 nfet_05v0 ad=0.5808p pd=3.52u as=0.5808p ps=3.52u w=1.32u l=0.6u
X138 VSS.t168 a_39302_38# a_39202_n387# VSS.t167 nfet_05v0 ad=0.2054p pd=1.31u as=0.263p ps=1.49u w=0.79u l=0.6u
X139 gc[9].t1 DFF_2phase_1$1_1.gf180mcu_fd_sc_mcu9t5v0__nand2_1_0.ZN VDD.t121 VDD.t120 pfet_05v0 ad=0.8052p pd=4.54u as=0.8052p ps=4.54u w=1.83u l=0.5u
X140 a_15463_n425# Q[3].t4 VSS.t268 VSS.t267 nfet_05v0 ad=0.2112p pd=1.64u as=0.5808p ps=3.52u w=1.32u l=0.6u
X141 gc[3].t0 DFF_2phase_1$1_7.gf180mcu_fd_sc_mcu9t5v0__nand2_1_0.ZN VSS.t312 VSS.t311 nfet_05v0 ad=0.5808p pd=3.52u as=0.5808p ps=3.52u w=1.32u l=0.6u
X142 VSS.t137 a_26478_158# Q[5].t0 VSS.t136 nfet_05v0 ad=0.5808p pd=3.52u as=0.5808p ps=3.52u w=1.32u l=0.6u
X143 a_30598_38# a_30254_158# VSS.t156 VSS.t155 nfet_05v0 ad=0.3476p pd=2.46u as=0.2054p ps=1.31u w=0.79u l=0.6u
X144 VDD.t112 PHI_2.t6 a_534_n402# VDD.t111 pfet_05v0 ad=0.476p pd=2.18u as=0.6072p ps=3.64u w=1.38u l=0.5u
X145 VSS.t143 PHI_1.t8 a_4310_n402# VSS.t142 nfet_05v0 ad=0.263p pd=1.49u as=0.3476p ps=2.46u w=0.79u l=0.6u
X146 VDD.t182 PHI_1.t9 a_35510_n402# VDD.t181 pfet_05v0 ad=0.476p pd=2.18u as=0.6072p ps=3.64u w=1.38u l=0.5u
X147 a_36838_38# a_36494_158# VDD.t37 VDD.t36 pfet_05v0 ad=0.6072p pd=3.64u as=0.3588p ps=1.9u w=1.38u l=0.5u
X148 a_45402_158# a_44682_n384# a_45198_158# VDD.t287 pfet_05v0 ad=0.426p pd=2.08u as=0.26p ps=1.52u w=1u l=0.5u
X149 a_57530_158# DFF_2phase_1$1_0.gf180mcu_fd_sc_mcu9t5v0__latq_1_1.Q VDD.t69 VDD.t68 pfet_05v0 ad=0.12p pd=1.24u as=0.44p ps=2.88u w=1u l=0.5u
X150 a_4778_n384# a_4310_n402# VSS.t152 VSS.t151 nfet_05v0 ad=0.308p pd=2.28u as=0.263p ps=1.49u w=0.7u l=0.6u
X151 VDD.t135 a_26478_158# Q[5].t1 VDD.t134 pfet_05v0 ad=0.8052p pd=4.54u as=0.8052p ps=4.54u w=1.83u l=0.5u
X152 a_52903_n425# Q[9].t3 VSS.t2 VSS.t1 nfet_05v0 ad=0.2112p pd=1.64u as=0.5808p ps=3.52u w=1.32u l=0.6u
X153 a_n946_158# a_n1930_n402# a_n1094_158# VDD.t29 pfet_05v0 ad=0.26p pd=1.52u as=0.12p ps=1.24u w=1u l=0.5u
X154 a_36698_158# a_35978_n384# a_36494_158# VDD.t73 pfet_05v0 ad=0.426p pd=2.08u as=0.26p ps=1.52u w=1u l=0.5u
X155 DFF_2phase_1$1_3.gf180mcu_fd_sc_mcu9t5v0__nand2_1_0.ZN Q[7].t3 VDD.t194 VDD.t193 pfet_05v0 ad=0.4277p pd=2.165u as=0.7238p ps=4.17u w=1.645u l=0.5u
X156 a_7610_158# DFF_2phase_1$1_9.gf180mcu_fd_sc_mcu9t5v0__latq_1_1.Q VDD.t286 VDD.t285 pfet_05v0 ad=0.12p pd=1.24u as=0.44p ps=2.88u w=1u l=0.5u
X157 a_13998_158# a_13014_n402# a_13850_158# VDD.t55 pfet_05v0 ad=0.26p pd=1.52u as=0.12p ps=1.24u w=1u l=0.5u
X158 a_38958_158# a_38442_n384# a_38810_n387# VSS.t321 nfet_05v0 ad=0.182p pd=1.22u as=83.99999f ps=0.94u w=0.7u l=0.6u
X159 a_45198_158# a_44682_n384# a_45050_n387# VSS.t281 nfet_05v0 ad=0.182p pd=1.22u as=83.99999f ps=0.94u w=0.7u l=0.6u
X160 VDD.t114 PHI_2.t7 a_6774_n402# VDD.t113 pfet_05v0 ad=0.476p pd=2.18u as=0.6072p ps=3.64u w=1.38u l=0.5u
X161 VSS.t204 PHI_2.t8 a_6774_n402# VSS.t203 nfet_05v0 ad=0.263p pd=1.49u as=0.3476p ps=2.46u w=0.79u l=0.6u
X162 a_48458_n384# a_47990_n402# VDD.t11 VDD.t10 pfet_05v0 ad=0.44p pd=2.88u as=0.476p ps=2.18u w=1u l=0.5u
X163 gc[6].t1 DFF_2phase_1$1_4.gf180mcu_fd_sc_mcu9t5v0__nand2_1_0.ZN VDD.t307 VDD.t306 pfet_05v0 ad=0.8052p pd=4.54u as=0.8052p ps=4.54u w=1.83u l=0.5u
X164 a_58022_38# a_57678_158# VSS.t189 VSS.t188 nfet_05v0 ad=0.3476p pd=2.46u as=0.2054p ps=1.31u w=0.79u l=0.6u
X165 VSS.t199 a_51782_38# a_51682_n387# VSS.t198 nfet_05v0 ad=0.2054p pd=1.31u as=0.263p ps=1.49u w=0.79u l=0.6u
X166 VDD.t309 a_5638_38# a_5498_158# VDD.t308 pfet_05v0 ad=0.3588p pd=1.9u as=0.426p ps=2.08u w=1.38u l=0.5u
X167 a_18118_38# a_17774_158# VDD.t168 VDD.t167 pfet_05v0 ad=0.6072p pd=3.64u as=0.3588p ps=1.9u w=1.38u l=0.5u
X168 VDD.t176 a_51438_158# Q[9].t1 VDD.t175 pfet_05v0 ad=0.8052p pd=4.54u as=0.8052p ps=4.54u w=1.83u l=0.5u
X169 VSS.t206 PHI_2.t9 a_44214_n402# VSS.t205 nfet_05v0 ad=0.263p pd=1.49u as=0.3476p ps=2.46u w=0.79u l=0.6u
X170 a_55458_n387# a_54230_n402# a_55214_158# VSS.t192 nfet_05v0 ad=0.263p pd=1.49u as=0.182p ps=1.22u w=0.7u l=0.6u
X171 a_n1094_158# D_in.t1 VDD.t210 VDD.t209 pfet_05v0 ad=0.12p pd=1.24u as=0.44p ps=2.88u w=1u l=0.5u
X172 a_17774_158# a_17258_n384# a_17626_n387# VSS.t264 nfet_05v0 ad=0.182p pd=1.22u as=83.99999f ps=0.94u w=0.7u l=0.6u
X173 a_20238_158# a_19722_n384# a_20090_n387# VSS.t313 nfet_05v0 ad=0.182p pd=1.22u as=83.99999f ps=0.94u w=0.7u l=0.6u
X174 a_36346_n387# Q[6].t4 VSS.t316 VSS.t315 nfet_05v0 ad=83.99999f pd=0.94u as=0.308p ps=2.28u w=0.7u l=0.6u
X175 VDD.t208 a_45542_38# a_45402_158# VDD.t207 pfet_05v0 ad=0.3588p pd=1.9u as=0.426p ps=2.08u w=1.38u l=0.5u
X176 a_7610_n387# DFF_2phase_1$1_9.gf180mcu_fd_sc_mcu9t5v0__latq_1_1.Q VSS.t280 VSS.t279 nfet_05v0 ad=83.99999f pd=0.94u as=0.308p ps=2.28u w=0.7u l=0.6u
X177 DFF_2phase_1$1_7.gf180mcu_fd_sc_mcu9t5v0__nand2_1_0.ZN EN.t9 a_15463_n425# VSS.t246 nfet_05v0 ad=0.5808p pd=3.52u as=0.2112p ps=1.64u w=1.32u l=0.6u
X178 VDD.t257 EN.t10 DFF_2phase_1$1_5.gf180mcu_fd_sc_mcu9t5v0__nand2_1_0.ZN VDD.t256 pfet_05v0 ad=0.7238p pd=4.17u as=0.4277p ps=2.165u w=1.645u l=0.5u
X179 a_30458_158# a_29738_n384# a_30254_158# VDD.t117 pfet_05v0 ad=0.426p pd=2.08u as=0.26p ps=1.52u w=1u l=0.5u
X180 a_42586_158# Q[7].t4 VDD.t196 VDD.t195 pfet_05v0 ad=0.12p pd=1.24u as=0.44p ps=2.88u w=1u l=0.5u
X181 a_50922_n384# a_50454_n402# VDD.t46 VDD.t45 pfet_05v0 ad=0.44p pd=2.88u as=0.476p ps=2.18u w=1u l=0.5u
X182 a_1862_38# a_1518_158# VDD.t15 VDD.t14 pfet_05v0 ad=0.6072p pd=3.64u as=0.3588p ps=1.9u w=1.38u l=0.5u
X183 VDD.t184 PHI_1.t10 a_16790_n402# VDD.t183 pfet_05v0 ad=0.476p pd=2.18u as=0.6072p ps=3.64u w=1.38u l=0.5u
X184 a_23498_n384# a_23030_n402# VSS.t283 VSS.t282 nfet_05v0 ad=0.308p pd=2.28u as=0.263p ps=1.49u w=0.7u l=0.6u
X185 VDD.t217 PHI_2.t10 a_37974_n402# VDD.t216 pfet_05v0 ad=0.476p pd=2.18u as=0.6072p ps=3.64u w=1.38u l=0.5u
X186 a_57678_158# a_56694_n402# a_57530_158# VDD.t218 pfet_05v0 ad=0.26p pd=1.52u as=0.12p ps=1.24u w=1u l=0.5u
X187 DFF_2phase_1$1_1.gf180mcu_fd_sc_mcu9t5v0__nand2_1_0.ZN EN.t11 a_52903_n425# VSS.t247 nfet_05v0 ad=0.5808p pd=3.52u as=0.2112p ps=1.64u w=1.32u l=0.6u
X188 a_14202_158# a_13482_n384# a_13998_158# VDD.t318 pfet_05v0 ad=0.426p pd=2.08u as=0.26p ps=1.52u w=1u l=0.5u
X189 gc[3].t1 DFF_2phase_1$1_7.gf180mcu_fd_sc_mcu9t5v0__nand2_1_0.ZN VDD.t316 VDD.t315 pfet_05v0 ad=0.8052p pd=4.54u as=0.8052p ps=4.54u w=1.83u l=0.5u
X190 VSS.t178 PHI_1.t11 a_16790_n402# VSS.t177 nfet_05v0 ad=0.263p pd=1.49u as=0.3476p ps=2.46u w=0.79u l=0.6u
X191 a_26330_158# DFF_2phase_1$1_5.gf180mcu_fd_sc_mcu9t5v0__latq_1_1.Q VDD.t164 VDD.t163 pfet_05v0 ad=0.12p pd=1.24u as=0.44p ps=2.88u w=1u l=0.5u
X192 a_33062_38# a_32718_158# VSS.t261 VSS.t260 nfet_05v0 ad=0.3476p pd=2.46u as=0.2054p ps=1.31u w=0.79u l=0.6u
X193 a_57922_n387# a_56694_n402# a_57678_158# VSS.t213 nfet_05v0 ad=0.263p pd=1.49u as=0.182p ps=1.22u w=0.7u l=0.6u
X194 VSS.t19 a_5294_158# DFF_2phase_1$1_9.gf180mcu_fd_sc_mcu9t5v0__latq_1_1.Q VSS.t18 nfet_05v0 ad=0.5808p pd=3.52u as=0.5808p ps=3.52u w=1.32u l=0.6u
X195 a_20582_38# a_20238_158# VDD.t60 VDD.t59 pfet_05v0 ad=0.6072p pd=3.64u as=0.3588p ps=1.9u w=1.38u l=0.5u
X196 gc[10].t0 DFF_2phase_1$1_0.gf180mcu_fd_sc_mcu9t5v0__nand2_1_0.ZN VSS.t51 VSS.t50 nfet_05v0 ad=0.5808p pd=3.52u as=0.5808p ps=3.52u w=1.32u l=0.6u
X197 VDD.t230 a_8102_38# a_7962_158# VDD.t229 pfet_05v0 ad=0.3588p pd=1.9u as=0.426p ps=2.08u w=1.38u l=0.5u
X198 DFF_2phase_1$1_6.gf180mcu_fd_sc_mcu9t5v0__nand2_1_0.ZN Q[4].t4 VDD.t248 VDD.t247 pfet_05v0 ad=0.4277p pd=2.165u as=0.7238p ps=4.17u w=1.645u l=0.5u
X199 a_42218_n384# a_41750_n402# VDD.t129 VDD.t128 pfet_05v0 ad=0.44p pd=2.88u as=0.476p ps=2.18u w=1u l=0.5u
X200 a_1762_n387# a_534_n402# a_1518_158# VSS.t65 nfet_05v0 ad=0.263p pd=1.49u as=0.182p ps=1.22u w=0.7u l=0.6u
X201 a_7758_158# a_6774_n402# a_7610_158# VDD.t213 pfet_05v0 ad=0.26p pd=1.52u as=0.12p ps=1.24u w=1u l=0.5u
X202 a_25962_n384# a_25494_n402# VDD.t154 VDD.t153 pfet_05v0 ad=0.44p pd=2.88u as=0.476p ps=2.18u w=1u l=0.5u
X203 VSS.t106 a_49318_38# a_49218_n387# VSS.t105 nfet_05v0 ad=0.2054p pd=1.31u as=0.263p ps=1.49u w=0.79u l=0.6u
X204 VDD.t139 a_26822_38# a_26682_158# VDD.t138 pfet_05v0 ad=0.3588p pd=1.9u as=0.426p ps=2.08u w=1.38u l=0.5u
X205 VSS.t251 PHI_2.t11 a_25494_n402# VSS.t250 nfet_05v0 ad=0.263p pd=1.49u as=0.3476p ps=2.46u w=0.79u l=0.6u
X206 a_25962_n384# a_25494_n402# VSS.t149 VSS.t148 nfet_05v0 ad=0.308p pd=2.28u as=0.263p ps=1.49u w=0.7u l=0.6u
X207 a_32202_n384# a_31734_n402# VSS.t43 VSS.t42 nfet_05v0 ad=0.308p pd=2.28u as=0.263p ps=1.49u w=0.7u l=0.6u
X208 a_11878_38# a_11534_158# VSS.t329 VSS.t328 nfet_05v0 ad=0.3476p pd=2.46u as=0.2054p ps=1.31u w=0.79u l=0.6u
X209 a_17258_n384# a_16790_n402# VDD.t314 VDD.t313 pfet_05v0 ad=0.44p pd=2.88u as=0.476p ps=2.18u w=1u l=0.5u
X210 VDD.t240 PHI_1.t12 a_41750_n402# VDD.t239 pfet_05v0 ad=0.476p pd=2.18u as=0.6072p ps=3.64u w=1.38u l=0.5u
X211 a_43078_38# a_42734_158# VDD.t305 VDD.t304 pfet_05v0 ad=0.6072p pd=3.64u as=0.3588p ps=1.9u w=1.38u l=0.5u
X212 VDD.t259 PHI_2.t12 a_19254_n402# VDD.t258 pfet_05v0 ad=0.476p pd=2.18u as=0.6072p ps=3.64u w=1.38u l=0.5u
X213 VDD.t269 a_32718_158# Q[6].t1 VDD.t268 pfet_05v0 ad=0.8052p pd=4.54u as=0.8052p ps=4.54u w=1.83u l=0.5u
X214 gc[6].t0 DFF_2phase_1$1_4.gf180mcu_fd_sc_mcu9t5v0__nand2_1_0.ZN VSS.t303 VSS.t302 nfet_05v0 ad=0.5808p pd=3.52u as=0.5808p ps=3.52u w=1.32u l=0.6u
X215 VSS.t4 a_58022_38# a_57922_n387# VSS.t3 nfet_05v0 ad=0.2054p pd=1.31u as=0.263p ps=1.49u w=0.79u l=0.6u
X216 VDD.t93 a_n602_38# a_n742_158# VDD.t92 pfet_05v0 ad=0.3588p pd=1.9u as=0.426p ps=2.08u w=1.38u l=0.5u
X217 a_27943_n425# Q[5].t3 VSS.t318 VSS.t317 nfet_05v0 ad=0.2112p pd=1.64u as=0.5808p ps=3.52u w=1.32u l=0.6u
X218 a_34183_n425# Q[6].t5 VSS.t276 VSS.t275 nfet_05v0 ad=0.2112p pd=1.64u as=0.5808p ps=3.52u w=1.32u l=0.6u
X219 VSS.t96 a_38958_158# Q[7].t0 VSS.t95 nfet_05v0 ad=0.5808p pd=3.52u as=0.5808p ps=3.52u w=1.32u l=0.6u
X220 VSS.t127 a_45198_158# Q[8].t0 VSS.t126 nfet_05v0 ad=0.5808p pd=3.52u as=0.5808p ps=3.52u w=1.32u l=0.6u
X221 VDD.t279 a_18118_38# a_17978_158# VDD.t278 pfet_05v0 ad=0.3588p pd=1.9u as=0.426p ps=2.08u w=1.38u l=0.5u
X222 a_55214_158# a_54698_n384# a_55066_n387# VSS.t0 nfet_05v0 ad=0.182p pd=1.22u as=83.99999f ps=0.94u w=0.7u l=0.6u
X223 a_57882_158# a_57162_n384# a_57678_158# VDD.t158 pfet_05v0 ad=0.426p pd=2.08u as=0.26p ps=1.52u w=1u l=0.5u
X224 a_51438_158# a_50454_n402# a_51290_158# VDD.t44 pfet_05v0 ad=0.26p pd=1.52u as=0.12p ps=1.24u w=1u l=0.5u
X225 a_20090_n387# DFF_2phase_1$1_6.gf180mcu_fd_sc_mcu9t5v0__latq_1_1.Q VSS.t48 VSS.t47 nfet_05v0 ad=83.99999f pd=0.94u as=0.308p ps=2.28u w=0.7u l=0.6u
X226 a_11778_n387# a_10550_n402# a_11534_158# VSS.t195 nfet_05v0 ad=0.263p pd=1.49u as=0.182p ps=1.22u w=0.7u l=0.6u
X227 VDD.t242 PHI_1.t13 a_4310_n402# VDD.t241 pfet_05v0 ad=0.476p pd=2.18u as=0.6072p ps=3.64u w=1.38u l=0.5u
X228 gc[7].t1 DFF_2phase_1$1_3.gf180mcu_fd_sc_mcu9t5v0__nand2_1_0.ZN VDD.t87 VDD.t86 pfet_05v0 ad=0.8052p pd=4.54u as=0.8052p ps=4.54u w=1.83u l=0.5u
X229 a_57678_158# a_57162_n384# a_57530_n387# VSS.t154 nfet_05v0 ad=0.182p pd=1.22u as=83.99999f ps=0.94u w=0.7u l=0.6u
X230 a_58022_38# a_57678_158# VDD.t200 VDD.t199 pfet_05v0 ad=0.6072p pd=3.64u as=0.3588p ps=1.9u w=1.38u l=0.5u
X231 VDD.t149 a_55214_158# DFF_2phase_1$1_0.gf180mcu_fd_sc_mcu9t5v0__latq_1_1.Q VDD.t148 pfet_05v0 ad=0.8052p pd=4.54u as=0.8052p ps=4.54u w=1.83u l=0.5u
X232 a_49178_158# a_48458_n384# a_48974_158# VDD.t293 pfet_05v0 ad=0.426p pd=2.08u as=0.26p ps=1.52u w=1u l=0.5u
X233 a_7962_158# a_7242_n384# a_7758_158# VDD.t126 pfet_05v0 ad=0.426p pd=2.08u as=0.26p ps=1.52u w=1u l=0.5u
X234 a_11386_158# Q[2].t2 VDD.t143 VDD.t142 pfet_05v0 ad=0.12p pd=1.24u as=0.44p ps=2.88u w=1u l=0.5u
X235 VDD.t261 PHI_2.t13 a_44214_n402# VDD.t260 pfet_05v0 ad=0.476p pd=2.18u as=0.6072p ps=3.64u w=1.38u l=0.5u
X236 DFF_2phase_1$1_0.gf180mcu_fd_sc_mcu9t5v0__nand2_1_0.ZN Q[10].t3 VDD.t292 VDD.t291 pfet_05v0 ad=0.4277p pd=2.165u as=0.7238p ps=4.17u w=1.645u l=0.5u
X237 VSS.t237 PHI_1.t14 a_54230_n402# VSS.t236 nfet_05v0 ad=0.263p pd=1.49u as=0.3476p ps=2.46u w=0.79u l=0.6u
X238 a_1518_158# a_534_n402# a_1370_158# VDD.t65 pfet_05v0 ad=0.26p pd=1.52u as=0.12p ps=1.24u w=1u l=0.5u
X239 VSS.t162 a_17774_158# DFF_2phase_1$1_6.gf180mcu_fd_sc_mcu9t5v0__latq_1_1.Q VSS.t161 nfet_05v0 ad=0.5808p pd=3.52u as=0.5808p ps=3.52u w=1.32u l=0.6u
X240 VSS.t60 a_20238_158# Q[4].t0 VSS.t59 nfet_05v0 ad=0.5808p pd=3.52u as=0.5808p ps=3.52u w=1.32u l=0.6u
X241 a_24358_38# a_24014_158# VDD.t85 VDD.t84 pfet_05v0 ad=0.6072p pd=3.64u as=0.3588p ps=1.9u w=1.38u l=0.5u
X242 a_26478_158# a_25494_n402# a_26330_158# VDD.t152 pfet_05v0 ad=0.26p pd=1.52u as=0.12p ps=1.24u w=1u l=0.5u
X243 VSS.t81 a_33062_38# a_32962_n387# VSS.t80 nfet_05v0 ad=0.2054p pd=1.31u as=0.263p ps=1.49u w=0.79u l=0.6u
X244 VDD.t131 a_13998_158# Q[3].t1 VDD.t130 pfet_05v0 ad=0.8052p pd=4.54u as=0.8052p ps=4.54u w=1.83u l=0.5u
X245 a_5638_38# a_5294_158# VSS.t17 VSS.t16 nfet_05v0 ad=0.3476p pd=2.46u as=0.2054p ps=1.31u w=0.79u l=0.6u
X246 a_20482_n387# a_19254_n402# a_20238_158# VSS.t72 nfet_05v0 ad=0.263p pd=1.49u as=0.182p ps=1.22u w=0.7u l=0.6u