* NGSPICE file created from swmatrix_row_10.ext - technology: gf180mcuD

.subckt swmatrix_row_10_pex D_out D_in PHI_1 PHI_2 enable BUS[1] BUS[2] BUS[3] BUS[4] BUS[5] BUS[6] BUS[7] BUS[8] BUS[9] BUS[10] VDD
+ pin VSS
X0 pin.t52 swmatrix_Tgate_0.gf180mcu_fd_sc_mcu9t5v0__inv_1$1_0.ZN.t2 BUS[7].t16 vdd.t85 pfet_03v3 ad=2.6p pd=9.3u as=1.04p ps=4.52u w=4u l=0.28u
X1 pin.t187 swmatrix_Tgate_8.gated_control BUS[2].t21 vss.t301 nfet_03v3 ad=2.44p pd=9.22u as=1.04p ps=4.52u w=4u l=0.28u
X2 swmatrix_Tgate_3.gated_control ShiftReg_row_10_2$1_0.DFF_2phase_1_2.gf180mcu_fd_sc_mcu9t5v0__nand2_1_0.ZN vdd.t91 vdd.t90 pfet_05v0 ad=0.8052p pd=4.54u as=0.8052p ps=4.54u w=1.83u l=0.5u
X3 BUS[7].t15 swmatrix_Tgate_0.gf180mcu_fd_sc_mcu9t5v0__inv_1$1_0.ZN.t3 pin.t51 vdd.t84 pfet_03v3 ad=1.04p pd=4.52u as=2.6p ps=9.3u w=4u l=0.28u
X4 BUS[1].t17 swmatrix_Tgate_9.gf180mcu_fd_sc_mcu9t5v0__inv_1$1_0.ZN.t2 pin.t197 vdd.t401 pfet_03v3 ad=1.04p pd=4.52u as=1.04p ps=4.52u w=4u l=0.28u
X5 vdd.t518 a_51256_2002# a_51116_2122# vdd.t517 pfet_05v0 ad=0.3588p pd=1.9u as=0.426p ps=2.08u w=1.38u l=0.5u
X6 a_26296_2002# a_25952_2122# vss.t360 vss.t359 nfet_05v0 ad=0.3476p pd=2.46u as=0.2054p ps=1.31u w=0.79u l=0.6u
X7 BUS[5].t23 swmatrix_Tgate_5.gf180mcu_fd_sc_mcu9t5v0__inv_1$1_0.ZN.t2 pin.t154 vdd.t332 pfet_03v3 ad=1.04p pd=4.52u as=1.04p ps=4.52u w=4u l=0.28u
X8 a_34508_1577# ShiftReg_row_10_2$1_0.DFF_2phase_1_4.gf180mcu_fd_sc_mcu9t5v0__latq_1$1_1.Q vss.t259 vss.t258 nfet_05v0 ad=83.99999f pd=0.94u as=0.308p ps=2.28u w=0.7u l=0.6u
X9 a_53620_1577# a_52392_1562# a_53376_2122# vss.t190 nfet_05v0 ad=0.263p pd=1.49u as=0.182p ps=1.22u w=0.7u l=0.6u
X10 a_6716_1580# a_6248_1562# vss.t45 vss.t44 nfet_05v0 ad=0.308p pd=2.28u as=0.263p ps=1.49u w=0.7u l=0.6u
X11 BUS[6].t23 swmatrix_Tgate_6.gf180mcu_fd_sc_mcu9t5v0__inv_1$1_0.ZN.t2 pin.t102 vdd.t237 pfet_03v3 ad=1.04p pd=4.52u as=1.04p ps=4.52u w=4u l=0.28u
X12 BUS[4].t17 swmatrix_Tgate_7.gf180mcu_fd_sc_mcu9t5v0__inv_1$1_0.ZN.t2 pin.t60 vdd.t154 pfet_03v3 ad=1.04p pd=4.52u as=1.04p ps=4.52u w=4u l=0.28u
X13 vdd.t224 PHI_2.t0 a_39912_1562# vdd.t223 pfet_05v0 ad=0.476p pd=2.18u as=0.6072p ps=3.64u w=1.38u l=0.5u
X14 BUS[8].t10 swmatrix_Tgate_3.gated_control pin.t107 vss.t214 nfet_03v3 ad=1.04p pd=4.52u as=1.04p ps=4.52u w=4u l=0.28u
X15 a_4921_1539# ShiftReg_row_10_2$1_0.Q[1] vss.t81 vss.t80 nfet_05v0 ad=0.2112p pd=1.64u as=0.5808p ps=3.52u w=1.32u l=0.6u
X16 pin.t19 swmatrix_Tgate_3.gf180mcu_fd_sc_mcu9t5v0__inv_1$1_0.ZN.t2 BUS[8].t4 vdd.t43 pfet_03v3 ad=1.04p pd=4.52u as=1.04p ps=4.52u w=4u l=0.28u
X17 vdd.t22 swmatrix_Tgate_5.gated_control swmatrix_Tgate_5.gf180mcu_fd_sc_mcu9t5v0__inv_1$1_0.ZN.t1 vdd.t21 pfet_05v0 ad=0.8052p pd=4.54u as=0.8052p ps=4.54u w=1.83u l=0.5u
X18 pin.t121 swmatrix_Tgate_6.gf180mcu_fd_sc_mcu9t5v0__inv_1$1_0.ZN.t3 BUS[6].t22 vdd.t258 pfet_03v3 ad=1.04p pd=4.52u as=1.04p ps=4.52u w=4u l=0.28u
X19 BUS[9].t14 swmatrix_Tgate_1.gated_control pin.t196 vss.t311 nfet_03v3 ad=1.04p pd=4.52u as=1.04p ps=4.52u w=4u l=0.28u
X20 pin.t79 swmatrix_Tgate_7.gf180mcu_fd_sc_mcu9t5v0__inv_1$1_0.ZN.t3 BUS[4].t16 vdd.t212 pfet_03v3 ad=1.04p pd=4.52u as=1.04p ps=4.52u w=4u l=0.28u
X21 vss.t283 a_45016_2002# a_44916_1577# vss.t282 nfet_05v0 ad=0.2054p pd=1.31u as=0.263p ps=1.49u w=0.79u l=0.6u
X22 vdd.t186 a_3456_2122# ShiftReg_row_10_2$1_0.Q[1] vdd.t185 pfet_05v0 ad=0.8052p pd=4.54u as=0.8052p ps=4.54u w=1.83u l=0.5u
X23 vss.t321 a_38776_2002# a_38676_1577# vss.t320 nfet_05v0 ad=0.2054p pd=1.31u as=0.263p ps=1.49u w=0.79u l=0.6u
X24 ShiftReg_row_10_2$1_0.DFF_2phase_1_9.gf180mcu_fd_sc_mcu9t5v0__nand2_1_0.ZN enable.t0 a_11161_1539# vss.t184 nfet_05v0 ad=0.5808p pd=3.52u as=0.2112p ps=1.64u w=1.32u l=0.6u
X25 a_44156_1580# a_43688_1562# vss.t187 vss.t186 nfet_05v0 ad=0.308p pd=2.28u as=0.263p ps=1.49u w=0.7u l=0.6u
X26 a_13472_2122# a_12488_1562# a_13324_2122# vdd.t67 pfet_05v0 ad=0.26p pd=1.52u as=0.12p ps=1.24u w=1u l=0.5u
X27 a_19564_2122# ShiftReg_row_10_2$1_0.Q[3] vdd.t167 vdd.t166 pfet_05v0 ad=0.12p pd=1.24u as=0.44p ps=2.88u w=1u l=0.5u
X28 vdd.t263 a_53720_2002# a_53580_2122# vdd.t262 pfet_05v0 ad=0.3588p pd=1.9u as=0.426p ps=2.08u w=1.38u l=0.5u
X29 vss.t234 PHI_1.t0 a_56168_1562# vss.t233 nfet_05v0 ad=0.263p pd=1.49u as=0.3476p ps=2.46u w=0.79u l=0.6u
X30 BUS[8].t22 swmatrix_Tgate_3.gf180mcu_fd_sc_mcu9t5v0__inv_1$1_0.ZN.t3 pin.t235 vdd.t531 pfet_03v3 ad=1.04p pd=4.52u as=1.04p ps=4.52u w=4u l=0.28u
X31 vdd.t509 enable.t1 ShiftReg_row_10_2$1_0.DFF_2phase_1_8.gf180mcu_fd_sc_mcu9t5v0__nand2_1_0.ZN vdd.t508 pfet_05v0 ad=0.7238p pd=4.17u as=0.4277p ps=2.165u w=1.645u l=0.5u
X32 pin.t195 swmatrix_Tgate_1.gated_control BUS[9].t13 vss.t310 nfet_03v3 ad=2.44p pd=9.22u as=1.04p ps=4.52u w=4u l=0.28u
X33 a_26156_2122# a_25436_1580# a_25952_2122# vdd.t147 pfet_05v0 ad=0.426p pd=2.08u as=0.26p ps=1.52u w=1u l=0.5u
X34 a_56636_1580# a_56168_1562# vdd.t501 vdd.t500 pfet_05v0 ad=0.44p pd=2.88u as=0.476p ps=2.18u w=1u l=0.5u
X35 a_19916_2122# a_19196_1580# a_19712_2122# vdd.t387 pfet_05v0 ad=0.426p pd=2.08u as=0.26p ps=1.52u w=1u l=0.5u
X36 swmatrix_Tgate_7.gated_control ShiftReg_row_10_2$1_0.DFF_2phase_1_6.gf180mcu_fd_sc_mcu9t5v0__nand2_1_0.ZN vdd.t37 vdd.t36 pfet_05v0 ad=0.8052p pd=4.54u as=0.8052p ps=4.54u w=1.83u l=0.5u
X37 BUS[7].t14 swmatrix_Tgate_0.gf180mcu_fd_sc_mcu9t5v0__inv_1$1_0.ZN.t4 pin.t50 vdd.t83 pfet_03v3 ad=1.04p pd=4.52u as=1.04p ps=4.52u w=4u l=0.28u
X38 vdd.t286 PHI_1.t1 a_12488_1562# vdd.t285 pfet_05v0 ad=0.476p pd=2.18u as=0.6072p ps=3.64u w=1.38u l=0.5u
X39 BUS[4].t23 swmatrix_Tgate_7.gated_control pin.t224 vss.t389 nfet_03v3 ad=1.04p pd=4.52u as=1.04p ps=4.52u w=4u l=0.28u
X40 pin.t202 swmatrix_Tgate_1.gf180mcu_fd_sc_mcu9t5v0__inv_1$1_0.ZN.t2 BUS[9].t16 vdd.t421 pfet_03v3 ad=1.04p pd=4.52u as=1.04p ps=4.52u w=4u l=0.28u
X41 BUS[5].t5 swmatrix_Tgate_5.gated_control pin.t8 vss.t19 nfet_03v3 ad=1.04p pd=4.52u as=1.04p ps=4.52u w=4u l=0.28u
X42 a_7576_2002# a_7232_2122# vdd.t443 vdd.t442 pfet_05v0 ad=0.6072p pd=3.64u as=0.3588p ps=1.9u w=1.38u l=0.5u
X43 pin.t49 swmatrix_Tgate_0.gf180mcu_fd_sc_mcu9t5v0__inv_1$1_0.ZN.t5 BUS[7].t23 vdd.t82 pfet_03v3 ad=1.04p pd=4.52u as=1.04p ps=4.52u w=4u l=0.28u
X44 swmatrix_Tgate_2.gated_control ShiftReg_row_10_2$1_0.DFF_2phase_1_0.gf180mcu_fd_sc_mcu9t5v0__nand2_1_0.ZN vdd.t503 vdd.t502 pfet_05v0 ad=0.8052p pd=4.54u as=0.8052p ps=4.54u w=1.83u l=0.5u
X45 swmatrix_Tgate_1.gated_control ShiftReg_row_10_2$1_0.DFF_2phase_1_1.gf180mcu_fd_sc_mcu9t5v0__nand2_1_0.ZN vss.t244 vss.t243 nfet_05v0 ad=0.5808p pd=3.52u as=0.5808p ps=3.52u w=1.32u l=0.6u
X46 vss.t377 a_47480_2002# a_47380_1577# vss.t376 nfet_05v0 ad=0.2054p pd=1.31u as=0.263p ps=1.49u w=0.79u l=0.6u
X47 vdd.t288 PHI_1.t2 a_8_1562# vdd.t287 pfet_05v0 ad=0.476p pd=2.18u as=0.6072p ps=3.64u w=1.38u l=0.5u
X48 vss.t28 swmatrix_Tgate_2.gated_control swmatrix_Tgate_2.gf180mcu_fd_sc_mcu9t5v0__inv_1$1_0.ZN.t0 vss.t27 nfet_05v0 ad=0.5808p pd=3.52u as=0.5808p ps=3.52u w=1.32u l=0.6u
X49 pin.t80 swmatrix_Tgate_7.gf180mcu_fd_sc_mcu9t5v0__inv_1$1_0.ZN.t4 BUS[4].t15 vdd.t213 pfet_03v3 ad=1.04p pd=4.52u as=1.04p ps=4.52u w=4u l=0.28u
X50 BUS[2].t8 swmatrix_Tgate_8.gf180mcu_fd_sc_mcu9t5v0__inv_1$1_0.ZN.t2 pin.t159 vdd.t341 pfet_03v3 ad=1.04p pd=4.52u as=1.04p ps=4.52u w=4u l=0.28u
X51 a_48601_1539# ShiftReg_row_10_2$1_0.Q[8] vss.t168 vss.t167 nfet_05v0 ad=0.2112p pd=1.64u as=0.5808p ps=3.52u w=1.32u l=0.6u
X52 a_46620_1580# a_46152_1562# vss.t57 vss.t56 nfet_05v0 ad=0.308p pd=2.28u as=0.263p ps=1.49u w=0.7u l=0.6u
X53 vss.t192 PHI_2.t1 a_58632_1562# vss.t191 nfet_05v0 ad=0.263p pd=1.49u as=0.3476p ps=2.46u w=0.79u l=0.6u
X54 a_34900_1577# a_33672_1562# a_34656_2122# vss.t257 nfet_05v0 ad=0.263p pd=1.49u as=0.182p ps=1.22u w=0.7u l=0.6u
X55 pin.t7 swmatrix_Tgate_5.gated_control BUS[5].t4 vss.t18 nfet_03v3 ad=2.44p pd=9.22u as=1.04p ps=4.52u w=4u l=0.28u
X56 a_28620_2122# a_27900_1580# a_28416_2122# vdd.t168 pfet_05v0 ad=0.426p pd=2.08u as=0.26p ps=1.52u w=1u l=0.5u
X57 BUS[6].t21 swmatrix_Tgate_6.gf180mcu_fd_sc_mcu9t5v0__inv_1$1_0.ZN.t4 pin.t122 vdd.t259 pfet_03v3 ad=1.04p pd=4.52u as=2.6p ps=9.3u w=4u l=0.28u
X58 ShiftReg_row_10_2$1_0.DFF_2phase_1_5.gf180mcu_fd_sc_mcu9t5v0__nand2_1_0.ZN ShiftReg_row_10_2$1_0.Q[5] vdd.t133 vdd.t132 pfet_05v0 ad=0.4277p pd=2.165u as=0.7238p ps=4.17u w=1.645u l=0.5u
X59 vss.t254 a_32192_2122# ShiftReg_row_10_2$1_0.DFF_2phase_1_4.gf180mcu_fd_sc_mcu9t5v0__latq_1$1_1.Q vss.t253 nfet_05v0 ad=0.5808p pd=3.52u as=0.5808p ps=3.52u w=1.32u l=0.6u
X60 vss.t358 a_25952_2122# ShiftReg_row_10_2$1_0.DFF_2phase_1_5.gf180mcu_fd_sc_mcu9t5v0__latq_1$1_1.Q vss.t357 nfet_05v0 ad=0.5808p pd=3.52u as=0.5808p ps=3.52u w=1.32u l=0.6u
X61 a_45016_2002# a_44672_2122# vdd.t16 vdd.t15 pfet_05v0 ad=0.6072p pd=3.64u as=0.3588p ps=1.9u w=1.38u l=0.5u
X62 vss.t242 PHI_1.t3 a_8_1562# vss.t241 nfet_05v0 ad=0.263p pd=1.49u as=0.3476p ps=2.46u w=0.79u l=0.6u
X63 BUS[7].t5 swmatrix_Tgate_0.gated_control pin.t25 vss.t54 nfet_03v3 ad=1.04p pd=4.52u as=1.04p ps=4.52u w=4u l=0.28u
X64 pin.t123 swmatrix_Tgate_6.gf180mcu_fd_sc_mcu9t5v0__inv_1$1_0.ZN.t5 BUS[6].t20 vdd.t260 pfet_03v3 ad=1.04p pd=4.52u as=1.04p ps=4.52u w=4u l=0.28u
X65 vdd.t108 swmatrix_Tgate_4.gated_control swmatrix_Tgate_4.gf180mcu_fd_sc_mcu9t5v0__inv_1$1_0.ZN.t1 vdd.t107 pfet_05v0 ad=0.8052p pd=4.54u as=0.8052p ps=4.54u w=1.83u l=0.5u
X66 vss.t194 PHI_2.t2 a_2472_1562# vss.t193 nfet_05v0 ad=0.263p pd=1.49u as=0.3476p ps=2.46u w=0.79u l=0.6u
X67 vdd.t412 a_13472_2122# ShiftReg_row_10_2$1_0.DFF_2phase_1_7.gf180mcu_fd_sc_mcu9t5v0__latq_1$1_1.Q vdd.t411 pfet_05v0 ad=0.8052p pd=4.54u as=0.8052p ps=4.54u w=1.83u l=0.5u
X68 pin.t127 swmatrix_Tgate_4.gf180mcu_fd_sc_mcu9t5v0__inv_1$1_0.ZN.t2 BUS[3].t17 vdd.t278 pfet_03v3 ad=1.04p pd=4.52u as=1.04p ps=4.52u w=4u l=0.28u
X69 a_32044_2122# ShiftReg_row_10_2$1_0.Q[5] vdd.t131 vdd.t130 pfet_05v0 ad=0.12p pd=1.24u as=0.44p ps=2.88u w=1u l=0.5u
X70 vss.t300 swmatrix_Tgate_8.gated_control swmatrix_Tgate_8.gf180mcu_fd_sc_mcu9t5v0__inv_1$1_0.ZN.t0 vss.t299 nfet_05v0 ad=0.5808p pd=3.52u as=0.5808p ps=3.52u w=1.32u l=0.6u
X71 vss.t204 swmatrix_Tgate_9.gated_control swmatrix_Tgate_9.gf180mcu_fd_sc_mcu9t5v0__inv_1$1_0.ZN.t0 vss.t203 nfet_05v0 ad=0.5808p pd=3.52u as=0.5808p ps=3.52u w=1.32u l=0.6u
X72 a_2940_1580# a_2472_1562# vdd.t113 vdd.t112 pfet_05v0 ad=0.44p pd=2.88u as=0.476p ps=2.18u w=1u l=0.5u
X73 pin.t48 swmatrix_Tgate_0.gf180mcu_fd_sc_mcu9t5v0__inv_1$1_0.ZN.t6 BUS[7].t22 vdd.t81 pfet_03v3 ad=1.04p pd=4.52u as=1.04p ps=4.52u w=4u l=0.28u
X74 pin.t228 swmatrix_Tgate_2.gf180mcu_fd_sc_mcu9t5v0__inv_1$1_0.ZN.t2 BUS[10].t23 vdd.t498 pfet_03v3 ad=1.04p pd=4.52u as=1.04p ps=4.52u w=4u l=0.28u
X75 a_53376_2122# a_52860_1580# a_53228_1577# vss.t249 nfet_05v0 ad=0.182p pd=1.22u as=83.99999f ps=0.94u w=0.7u l=0.6u
X76 pin.t219 swmatrix_Tgate_8.gf180mcu_fd_sc_mcu9t5v0__inv_1$1_0.ZN.t3 BUS[2].t22 vdd.t487 pfet_03v3 ad=2.6p pd=9.3u as=1.04p ps=4.52u w=4u l=0.28u
X77 vdd.t104 a_50912_2122# ShiftReg_row_10_2$1_0.DFF_2phase_1_1.gf180mcu_fd_sc_mcu9t5v0__latq_1$1_1.Q vdd.t103 pfet_05v0 ad=0.8052p pd=4.54u as=0.8052p ps=4.54u w=1.83u l=0.5u
X78 swmatrix_Tgate_5.gated_control ShiftReg_row_10_2$1_0.DFF_2phase_1_5.gf180mcu_fd_sc_mcu9t5v0__nand2_1_0.ZN vss.t7 vss.t6 nfet_05v0 ad=0.5808p pd=3.52u as=0.5808p ps=3.52u w=1.32u l=0.6u
X79 BUS[9].t17 swmatrix_Tgate_1.gf180mcu_fd_sc_mcu9t5v0__inv_1$1_0.ZN.t3 pin.t203 vdd.t422 pfet_03v3 ad=1.04p pd=4.52u as=1.04p ps=4.52u w=4u l=0.28u
X80 a_28760_2002# a_28416_2122# vss.t330 vss.t329 nfet_05v0 ad=0.3476p pd=2.46u as=0.2054p ps=1.31u w=0.79u l=0.6u
X81 BUS[7].t21 swmatrix_Tgate_0.gf180mcu_fd_sc_mcu9t5v0__inv_1$1_0.ZN.t7 pin.t47 vdd.t80 pfet_03v3 ad=1.04p pd=4.52u as=1.04p ps=4.52u w=4u l=0.28u
X82 BUS[1].t16 swmatrix_Tgate_9.gf180mcu_fd_sc_mcu9t5v0__inv_1$1_0.ZN.t3 pin.t198 vdd.t402 pfet_03v3 ad=1.04p pd=4.52u as=1.04p ps=4.52u w=4u l=0.28u
X83 a_47480_2002# a_47136_2122# vdd.t124 vdd.t123 pfet_05v0 ad=0.6072p pd=3.64u as=0.3588p ps=1.9u w=1.38u l=0.5u
X84 vss.t143 a_34656_2122# ShiftReg_row_10_2$1_0.Q[6] vss.t142 nfet_05v0 ad=0.5808p pd=3.52u as=0.5808p ps=3.52u w=1.32u l=0.6u
X85 BUS[5].t22 swmatrix_Tgate_5.gf180mcu_fd_sc_mcu9t5v0__inv_1$1_0.ZN.t3 pin.t100 vdd.t235 pfet_03v3 ad=1.04p pd=4.52u as=1.04p ps=4.52u w=4u l=0.28u
X86 a_23641_1539# ShiftReg_row_10_2$1_0.Q[4] vss.t315 vss.t314 nfet_05v0 ad=0.2112p pd=1.64u as=0.5808p ps=3.52u w=1.32u l=0.6u
X87 vss.t196 PHI_2.t3 a_39912_1562# vss.t195 nfet_05v0 ad=0.263p pd=1.49u as=0.3476p ps=2.46u w=0.79u l=0.6u
X88 a_7084_1577# ShiftReg_row_10_2$1_0.Q[1] vss.t79 vss.t78 nfet_05v0 ad=83.99999f pd=0.94u as=0.308p ps=2.28u w=0.7u l=0.6u
X89 a_1336_2002# a_992_2122# vss.t115 vss.t114 nfet_05v0 ad=0.3476p pd=2.46u as=0.2054p ps=1.31u w=0.79u l=0.6u
X90 vdd.t462 a_22176_2122# ShiftReg_row_10_2$1_0.Q[4] vdd.t461 pfet_05v0 ad=0.8052p pd=4.54u as=0.8052p ps=4.54u w=1.83u l=0.5u
X91 pin.t176 swmatrix_Tgate_1.gf180mcu_fd_sc_mcu9t5v0__inv_1$1_0.ZN.t4 BUS[9].t7 vdd.t358 pfet_03v3 ad=1.04p pd=4.52u as=1.04p ps=4.52u w=4u l=0.28u
X92 BUS[3].t23 swmatrix_Tgate_4.gated_control pin.t53 vss.t106 nfet_03v3 ad=1.04p pd=4.52u as=1.04p ps=4.52u w=4u l=0.28u
X93 ShiftReg_row_10_2$1_0.DFF_2phase_1_9.gf180mcu_fd_sc_mcu9t5v0__nand2_1_0.ZN ShiftReg_row_10_2$1_0.Q[2] vdd.t447 vdd.t446 pfet_05v0 ad=0.4277p pd=2.165u as=0.7238p ps=4.17u w=1.645u l=0.5u
X94 vdd.t437 a_15936_2122# ShiftReg_row_10_2$1_0.Q[3] vdd.t436 pfet_05v0 ad=0.8052p pd=4.54u as=0.8052p ps=4.54u w=1.83u l=0.5u
X95 pin.t111 swmatrix_Tgate_9.gf180mcu_fd_sc_mcu9t5v0__inv_1$1_0.ZN.t4 BUS[1].t15 vdd.t244 pfet_03v3 ad=1.04p pd=4.52u as=1.04p ps=4.52u w=4u l=0.28u
X96 a_61081_1539# d_out.t2 vss.t335 vss.t334 nfet_05v0 ad=0.2112p pd=1.64u as=0.5808p ps=3.52u w=1.32u l=0.6u
X97 pin.t221 swmatrix_Tgate_4.gf180mcu_fd_sc_mcu9t5v0__inv_1$1_0.ZN.t3 BUS[3].t16 vdd.t491 pfet_03v3 ad=1.04p pd=4.52u as=1.04p ps=4.52u w=4u l=0.28u
X98 a_27900_1580# a_27432_1562# vss.t375 vss.t374 nfet_05v0 ad=0.308p pd=2.28u as=0.263p ps=1.49u w=0.7u l=0.6u
X99 vss.t309 swmatrix_Tgate_1.gated_control swmatrix_Tgate_1.gf180mcu_fd_sc_mcu9t5v0__inv_1$1_0.ZN.t0 vss.t308 nfet_05v0 ad=0.5808p pd=3.52u as=0.5808p ps=3.52u w=1.32u l=0.6u
X100 pin.t12 swmatrix_Tgate_5.gated_control BUS[5].t3 vss.t17 nfet_03v3 ad=1.04p pd=4.52u as=1.04p ps=4.52u w=4u l=0.28u
X101 vdd.t138 a_59616_2122# d_out.t1 vdd.t137 pfet_05v0 ad=0.8052p pd=4.54u as=0.8052p ps=4.54u w=1.83u l=0.5u
X102 a_32192_2122# a_31676_1580# a_32044_1577# vss.t92 nfet_05v0 ad=0.182p pd=1.22u as=83.99999f ps=0.94u w=0.7u l=0.6u
X103 a_25952_2122# a_25436_1580# a_25804_1577# vss.t144 nfet_05v0 ad=0.182p pd=1.22u as=83.99999f ps=0.94u w=0.7u l=0.6u
X104 BUS[3].t15 swmatrix_Tgate_4.gf180mcu_fd_sc_mcu9t5v0__inv_1$1_0.ZN.t4 pin.t63 vdd.t187 pfet_03v3 ad=1.04p pd=4.52u as=1.04p ps=4.52u w=4u l=0.28u
X105 a_44524_1577# ShiftReg_row_10_2$1_0.Q[7] vss.t355 vss.t354 nfet_05v0 ad=83.99999f pd=0.94u as=0.308p ps=2.28u w=0.7u l=0.6u
X106 pin.t30 swmatrix_Tgate_6.gated_control BUS[6].t5 vss.t74 nfet_03v3 ad=1.04p pd=4.52u as=1.04p ps=4.52u w=4u l=0.28u
X107 vdd.t280 PHI_1.t4 a_49928_1562# vdd.t279 pfet_05v0 ad=0.476p pd=2.18u as=0.6072p ps=3.64u w=1.38u l=0.5u
X108 pin.t227 swmatrix_Tgate_7.gated_control BUS[4].t22 vss.t388 nfet_03v3 ad=2.44p pd=9.22u as=1.04p ps=4.52u w=4u l=0.28u
X109 vdd.t511 enable.t2 ShiftReg_row_10_2$1_0.DFF_2phase_1_0.gf180mcu_fd_sc_mcu9t5v0__nand2_1_0.ZN vdd.t510 pfet_05v0 ad=0.7238p pd=4.17u as=0.4277p ps=2.165u w=1.645u l=0.5u
X110 BUS[8].t23 swmatrix_Tgate_3.gf180mcu_fd_sc_mcu9t5v0__inv_1$1_0.ZN.t4 pin.t236 vdd.t532 pfet_03v3 ad=1.04p pd=4.52u as=1.04p ps=4.52u w=4u l=0.28u
X111 vdd.t513 enable.t3 ShiftReg_row_10_2$1_0.DFF_2phase_1_1.gf180mcu_fd_sc_mcu9t5v0__nand2_1_0.ZN vdd.t512 pfet_05v0 ad=0.7238p pd=4.17u as=0.4277p ps=2.165u w=1.645u l=0.5u
X112 ShiftReg_row_10_2$1_0.DFF_2phase_1_2.gf180mcu_fd_sc_mcu9t5v0__nand2_1_0.ZN enable.t4 a_48601_1539# vss.t41 nfet_05v0 ad=0.5808p pd=3.52u as=0.2112p ps=1.64u w=1.32u l=0.6u
X113 vss.t236 PHI_1.t5 a_12488_1562# vss.t235 nfet_05v0 ad=0.263p pd=1.49u as=0.3476p ps=2.46u w=0.79u l=0.6u
X114 BUS[2].t23 swmatrix_Tgate_8.gf180mcu_fd_sc_mcu9t5v0__inv_1$1_0.ZN.t4 pin.t220 vdd.t488 pfet_03v3 ad=1.04p pd=4.52u as=1.04p ps=4.52u w=4u l=0.28u
X115 a_59468_2122# ShiftReg_row_10_2$1_0.DFF_2phase_1_0.gf180mcu_fd_sc_mcu9t5v0__latq_1$1_1.Q vdd.t398 vdd.t397 pfet_05v0 ad=0.12p pd=1.24u as=0.44p ps=2.88u w=1u l=0.5u
X116 a_53376_2122# a_52392_1562# a_53228_2122# vdd.t197 pfet_05v0 ad=0.26p pd=1.52u as=0.12p ps=1.24u w=1u l=0.5u
X117 pin.t101 swmatrix_Tgate_5.gf180mcu_fd_sc_mcu9t5v0__inv_1$1_0.ZN.t4 BUS[5].t21 vdd.t236 pfet_03v3 ad=1.04p pd=4.52u as=1.04p ps=4.52u w=4u l=0.28u
X118 a_12956_1580# a_12488_1562# vdd.t66 vdd.t65 pfet_05v0 ad=0.44p pd=2.88u as=0.476p ps=2.18u w=1u l=0.5u
X119 a_22520_2002# a_22176_2122# vdd.t460 vdd.t459 pfet_05v0 ad=0.6072p pd=3.64u as=0.3588p ps=1.9u w=1.38u l=0.5u
X120 BUS[8].t9 swmatrix_Tgate_3.gated_control pin.t106 vss.t213 nfet_03v3 ad=1.04p pd=4.52u as=2.44p ps=9.22u w=4u l=0.28u
X121 BUS[6].t4 swmatrix_Tgate_6.gated_control pin.t29 vss.t73 nfet_03v3 ad=1.04p pd=4.52u as=1.04p ps=4.52u w=4u l=0.28u
X122 pin.t217 swmatrix_Tgate_3.gf180mcu_fd_sc_mcu9t5v0__inv_1$1_0.ZN.t5 BUS[8].t20 vdd.t485 pfet_03v3 ad=2.6p pd=9.3u as=1.04p ps=4.52u w=4u l=0.28u
X123 pin.t81 swmatrix_Tgate_7.gf180mcu_fd_sc_mcu9t5v0__inv_1$1_0.ZN.t5 BUS[4].t14 vdd.t214 pfet_03v3 ad=1.04p pd=4.52u as=1.04p ps=4.52u w=4u l=0.28u
X124 pin.t174 swmatrix_Tgate_8.gf180mcu_fd_sc_mcu9t5v0__inv_1$1_0.ZN.t5 BUS[2].t14 vdd.t356 pfet_03v3 ad=1.04p pd=4.52u as=1.04p ps=4.52u w=4u l=0.28u
X125 a_45016_2002# a_44672_2122# vss.t11 vss.t10 nfet_05v0 ad=0.3476p pd=2.46u as=0.2054p ps=1.31u w=0.79u l=0.6u
X126 vss.t16 swmatrix_Tgate_5.gated_control swmatrix_Tgate_5.gf180mcu_fd_sc_mcu9t5v0__inv_1$1_0.ZN.t0 vss.t15 nfet_05v0 ad=0.5808p pd=3.52u as=0.5808p ps=3.52u w=1.32u l=0.6u
X127 a_46988_1577# ShiftReg_row_10_2$1_0.DFF_2phase_1_2.gf180mcu_fd_sc_mcu9t5v0__latq_1$1_1.Q vss.t30 vss.t29 nfet_05v0 ad=83.99999f pd=0.94u as=0.308p ps=2.28u w=0.7u l=0.6u
X128 pin.t105 swmatrix_Tgate_3.gated_control BUS[8].t8 vss.t212 nfet_03v3 ad=1.04p pd=4.52u as=1.04p ps=4.52u w=4u l=0.28u
X129 a_41240_2002# a_40896_2122# vss.t381 vss.t380 nfet_05v0 ad=0.3476p pd=2.46u as=0.2054p ps=1.31u w=0.79u l=0.6u
X130 a_844_2122# D_in.t0 vdd.t294 vdd.t293 pfet_05v0 ad=0.12p pd=1.24u as=0.44p ps=2.88u w=1u l=0.5u
X131 vss.t149 a_10040_2002# a_9940_1577# vss.t148 nfet_05v0 ad=0.2054p pd=1.31u as=0.263p ps=1.49u w=0.79u l=0.6u
X132 BUS[1].t14 swmatrix_Tgate_9.gf180mcu_fd_sc_mcu9t5v0__inv_1$1_0.ZN.t5 pin.t112 vdd.t245 pfet_03v3 ad=1.04p pd=4.52u as=1.04p ps=4.52u w=4u l=0.28u
X133 vdd.t32 PHI_2.t4 a_52392_1562# vdd.t31 pfet_05v0 ad=0.476p pd=2.18u as=0.6072p ps=3.64u w=1.38u l=0.5u
X134 BUS[4].t13 swmatrix_Tgate_7.gf180mcu_fd_sc_mcu9t5v0__inv_1$1_0.ZN.t6 pin.t114 vdd.t247 pfet_03v3 ad=1.04p pd=4.52u as=1.04p ps=4.52u w=4u l=0.28u
X135 vss.t35 PHI_2.t5 a_21192_1562# vss.t34 nfet_05v0 ad=0.263p pd=1.49u as=0.3476p ps=2.46u w=0.79u l=0.6u
X136 vdd.t449 a_35000_2002# a_34860_2122# vdd.t448 pfet_05v0 ad=0.3588p pd=1.9u as=0.426p ps=2.08u w=1.38u l=0.5u
X137 swmatrix_Tgate_9.gated_control ShiftReg_row_10_2$1_0.DFF_2phase_1_8.gf180mcu_fd_sc_mcu9t5v0__nand2_1_0.ZN vdd.t470 vdd.t469 pfet_05v0 ad=0.8052p pd=4.54u as=0.8052p ps=4.54u w=1.83u l=0.5u
X138 a_21660_1580# a_21192_1562# vdd.t30 vdd.t29 pfet_05v0 ad=0.44p pd=2.88u as=0.476p ps=2.18u w=1u l=0.5u
X139 vss.t341 a_57496_2002# a_57396_1577# vss.t340 nfet_05v0 ad=0.2054p pd=1.31u as=0.263p ps=1.49u w=0.79u l=0.6u
X140 a_38284_2122# ShiftReg_row_10_2$1_0.Q[6] vdd.t180 vdd.t179 pfet_05v0 ad=0.12p pd=1.24u as=0.44p ps=2.88u w=1u l=0.5u
X141 ShiftReg_row_10_2$1_0.DFF_2phase_1_8.gf180mcu_fd_sc_mcu9t5v0__nand2_1_0.ZN ShiftReg_row_10_2$1_0.Q[1] vdd.t89 vdd.t88 pfet_05v0 ad=0.4277p pd=2.165u as=0.7238p ps=4.17u w=1.645u l=0.5u
X142 ShiftReg_row_10_2$1_0.DFF_2phase_1_6.gf180mcu_fd_sc_mcu9t5v0__nand2_1_0.ZN enable.t5 a_23641_1539# vss.t42 nfet_05v0 ad=0.5808p pd=3.52u as=0.2112p ps=1.64u w=1.32u l=0.6u
X143 a_32192_2122# a_31208_1562# a_32044_2122# vdd.t142 pfet_05v0 ad=0.26p pd=1.52u as=0.12p ps=1.24u w=1u l=0.5u
X144 pin.t218 swmatrix_Tgate_3.gf180mcu_fd_sc_mcu9t5v0__inv_1$1_0.ZN.t6 BUS[8].t21 vdd.t486 pfet_03v3 ad=1.04p pd=4.52u as=1.04p ps=4.52u w=4u l=0.28u
X145 a_56636_1580# a_56168_1562# vss.t392 vss.t391 nfet_05v0 ad=0.308p pd=2.28u as=0.263p ps=1.49u w=0.7u l=0.6u
X146 a_9180_1580# a_8712_1562# vdd.t383 vdd.t382 pfet_05v0 ad=0.44p pd=2.88u as=0.476p ps=2.18u w=1u l=0.5u
X147 a_25952_2122# a_24968_1562# a_25804_2122# vdd.t516 pfet_05v0 ad=0.26p pd=1.52u as=0.12p ps=1.24u w=1u l=0.5u
X148 a_34508_2122# ShiftReg_row_10_2$1_0.DFF_2phase_1_4.gf180mcu_fd_sc_mcu9t5v0__latq_1$1_1.Q vdd.t340 vdd.t339 pfet_05v0 ad=0.12p pd=1.24u as=0.44p ps=2.88u w=1u l=0.5u
X149 a_44916_1577# a_43688_1562# a_44672_2122# vss.t185 nfet_05v0 ad=0.263p pd=1.49u as=0.182p ps=1.22u w=0.7u l=0.6u
X150 a_38636_2122# a_37916_1580# a_38432_2122# vdd.t316 pfet_05v0 ad=0.426p pd=2.08u as=0.26p ps=1.52u w=1u l=0.5u
X151 BUS[10].t22 swmatrix_Tgate_2.gf180mcu_fd_sc_mcu9t5v0__inv_1$1_0.ZN.t3 pin.t164 vdd.t346 pfet_03v3 ad=1.04p pd=4.52u as=1.04p ps=4.52u w=4u l=0.28u
X152 a_25804_1577# ShiftReg_row_10_2$1_0.Q[4] vss.t313 vss.t312 nfet_05v0 ad=83.99999f pd=0.94u as=0.308p ps=2.28u w=0.7u l=0.6u
X153 BUS[8].t2 swmatrix_Tgate_3.gf180mcu_fd_sc_mcu9t5v0__inv_1$1_0.ZN.t7 pin.t5 vdd.t19 pfet_03v3 ad=1.04p pd=4.52u as=1.04p ps=4.52u w=4u l=0.28u
X154 vss.t3 a_1336_2002# a_1236_1577# vss.t2 nfet_05v0 ad=0.2054p pd=1.31u as=0.263p ps=1.49u w=0.79u l=0.6u
X155 a_20056_2002# a_19712_2122# vss.t409 vss.t408 nfet_05v0 ad=0.3476p pd=2.46u as=0.2054p ps=1.31u w=0.79u l=0.6u
X156 BUS[4].t12 swmatrix_Tgate_7.gf180mcu_fd_sc_mcu9t5v0__inv_1$1_0.ZN.t7 pin.t115 vdd.t248 pfet_03v3 ad=1.04p pd=4.52u as=1.04p ps=4.52u w=4u l=0.28u
X157 a_22028_1577# ShiftReg_row_10_2$1_0.DFF_2phase_1_6.gf180mcu_fd_sc_mcu9t5v0__latq_1$1_1.Q vss.t164 vss.t163 nfet_05v0 ad=83.99999f pd=0.94u as=0.308p ps=2.28u w=0.7u l=0.6u
X158 a_16180_1577# a_14952_1562# a_15936_2122# vss.t230 nfet_05v0 ad=0.263p pd=1.49u as=0.182p ps=1.22u w=0.7u l=0.6u
X159 pin.t132 swmatrix_Tgate_2.gf180mcu_fd_sc_mcu9t5v0__inv_1$1_0.ZN.t4 BUS[10].t21 vdd.t297 pfet_03v3 ad=1.04p pd=4.52u as=1.04p ps=4.52u w=4u l=0.28u
X160 a_9548_1577# ShiftReg_row_10_2$1_0.DFF_2phase_1_9.gf180mcu_fd_sc_mcu9t5v0__latq_1$1_1.Q vss.t147 vss.t146 nfet_05v0 ad=83.99999f pd=0.94u as=0.308p ps=2.28u w=0.7u l=0.6u
X161 pin.t85 swmatrix_Tgate_6.gf180mcu_fd_sc_mcu9t5v0__inv_1$1_0.ZN.t6 BUS[6].t19 vdd.t218 pfet_03v3 ad=1.04p pd=4.52u as=1.04p ps=4.52u w=4u l=0.28u
X162 pin.t116 swmatrix_Tgate_7.gf180mcu_fd_sc_mcu9t5v0__inv_1$1_0.ZN.t8 BUS[4].t11 vdd.t249 pfet_03v3 ad=1.04p pd=4.52u as=1.04p ps=4.52u w=4u l=0.28u
X163 pin.t177 swmatrix_Tgate_1.gf180mcu_fd_sc_mcu9t5v0__inv_1$1_0.ZN.t5 BUS[9].t8 vdd.t359 pfet_03v3 ad=1.04p pd=4.52u as=1.04p ps=4.52u w=4u l=0.28u
X164 vss.t105 swmatrix_Tgate_4.gated_control swmatrix_Tgate_4.gf180mcu_fd_sc_mcu9t5v0__inv_1$1_0.ZN.t0 vss.t104 nfet_05v0 ad=0.5808p pd=3.52u as=0.5808p ps=3.52u w=1.32u l=0.6u
X165 a_47340_2122# a_46620_1580# a_47136_2122# vdd.t139 pfet_05v0 ad=0.426p pd=2.08u as=0.26p ps=1.52u w=1u l=0.5u
X166 a_22520_2002# a_22176_2122# vss.t364 vss.t363 nfet_05v0 ad=0.3476p pd=2.46u as=0.2054p ps=1.31u w=0.79u l=0.6u
X167 BUS[2].t15 swmatrix_Tgate_8.gf180mcu_fd_sc_mcu9t5v0__inv_1$1_0.ZN.t6 pin.t175 vdd.t357 pfet_03v3 ad=1.04p pd=4.52u as=1.04p ps=4.52u w=4u l=0.28u
X168 ShiftReg_row_10_2$1_0.DFF_2phase_1_2.gf180mcu_fd_sc_mcu9t5v0__nand2_1_0.ZN ShiftReg_row_10_2$1_0.Q[8] vdd.t174 vdd.t173 pfet_05v0 ad=0.4277p pd=2.165u as=0.7238p ps=4.17u w=1.645u l=0.5u
X169 a_13324_2122# ShiftReg_row_10_2$1_0.Q[2] vdd.t445 vdd.t444 pfet_05v0 ad=0.12p pd=1.24u as=0.44p ps=2.88u w=1u l=0.5u
X170 vss.t9 a_44672_2122# ShiftReg_row_10_2$1_0.DFF_2phase_1_2.gf180mcu_fd_sc_mcu9t5v0__latq_1$1_1.Q vss.t8 nfet_05v0 ad=0.5808p pd=3.52u as=0.5808p ps=3.52u w=1.32u l=0.6u
X171 vss.t5 a_3800_2002# a_3700_1577# vss.t4 nfet_05v0 ad=0.2054p pd=1.31u as=0.263p ps=1.49u w=0.79u l=0.6u
X172 vdd.t34 PHI_2.t6 a_33672_1562# vdd.t33 pfet_05v0 ad=0.476p pd=2.18u as=0.6072p ps=3.64u w=1.38u l=0.5u
X173 pin.t24 swmatrix_Tgate_0.gated_control BUS[7].t4 vss.t53 nfet_03v3 ad=2.44p pd=9.22u as=1.04p ps=4.52u w=4u l=0.28u
X174 vss.t238 PHI_1.t6 a_49928_1562# vss.t237 nfet_05v0 ad=0.263p pd=1.49u as=0.3476p ps=2.46u w=0.79u l=0.6u
X175 a_28416_2122# a_27900_1580# a_28268_1577# vss.t162 nfet_05v0 ad=0.182p pd=1.22u as=83.99999f ps=0.94u w=0.7u l=0.6u
X176 BUS[9].t0 swmatrix_Tgate_1.gf180mcu_fd_sc_mcu9t5v0__inv_1$1_0.ZN.t6 pin.t59 vdd.t118 pfet_03v3 ad=1.04p pd=4.52u as=1.04p ps=4.52u w=4u l=0.28u
X177 a_57496_2002# a_57152_2122# vdd.t378 vdd.t377 pfet_05v0 ad=0.6072p pd=3.64u as=0.3588p ps=1.9u w=1.38u l=0.5u
X178 a_2940_1580# a_2472_1562# vss.t111 vss.t110 nfet_05v0 ad=0.308p pd=2.28u as=0.263p ps=1.49u w=0.7u l=0.6u
X179 vdd.t373 a_16280_2002# a_16140_2122# vdd.t372 pfet_05v0 ad=0.3588p pd=1.9u as=0.426p ps=2.08u w=1.38u l=0.5u
X180 vdd.t320 a_32192_2122# ShiftReg_row_10_2$1_0.DFF_2phase_1_4.gf180mcu_fd_sc_mcu9t5v0__latq_1$1_1.Q vdd.t319 pfet_05v0 ad=0.8052p pd=4.54u as=0.8052p ps=4.54u w=1.83u l=0.5u
X181 pin.t124 swmatrix_Tgate_8.gf180mcu_fd_sc_mcu9t5v0__inv_1$1_0.ZN.t7 BUS[2].t0 vdd.t261 pfet_03v3 ad=1.04p pd=4.52u as=1.04p ps=4.52u w=4u l=0.28u
X182 vdd.t458 a_25952_2122# ShiftReg_row_10_2$1_0.DFF_2phase_1_5.gf180mcu_fd_sc_mcu9t5v0__latq_1$1_1.Q vdd.t457 pfet_05v0 ad=0.8052p pd=4.54u as=0.8052p ps=4.54u w=1.83u l=0.5u
X183 a_50764_2122# ShiftReg_row_10_2$1_0.Q[8] vdd.t172 vdd.t171 pfet_05v0 ad=0.12p pd=1.24u as=0.44p ps=2.88u w=1u l=0.5u
X184 BUS[1].t23 swmatrix_Tgate_9.gated_control pin.t99 vss.t202 nfet_03v3 ad=1.04p pd=4.52u as=1.04p ps=4.52u w=4u l=0.28u
X185 a_19196_1580# a_18728_1562# vdd.t161 vdd.t160 pfet_05v0 ad=0.44p pd=2.88u as=0.476p ps=2.18u w=1u l=0.5u
X186 a_7476_1577# a_6248_1562# a_7232_2122# vss.t43 nfet_05v0 ad=0.263p pd=1.49u as=0.182p ps=1.22u w=0.7u l=0.6u
X187 BUS[3].t22 swmatrix_Tgate_4.gated_control pin.t57 vss.t103 nfet_03v3 ad=1.04p pd=4.52u as=2.44p ps=9.22u w=4u l=0.28u
X188 pin.t46 swmatrix_Tgate_0.gf180mcu_fd_sc_mcu9t5v0__inv_1$1_0.ZN.t8 BUS[7].t20 vdd.t79 pfet_03v3 ad=1.04p pd=4.52u as=1.04p ps=4.52u w=4u l=0.28u
X189 a_37916_1580# a_37448_1562# vss.t225 vss.t224 nfet_05v0 ad=0.308p pd=2.28u as=0.263p ps=1.49u w=0.7u l=0.6u
X190 pin.t0 swmatrix_Tgate_5.gf180mcu_fd_sc_mcu9t5v0__inv_1$1_0.ZN.t5 BUS[5].t20 vdd.t8 pfet_03v3 ad=1.04p pd=4.52u as=1.04p ps=4.52u w=4u l=0.28u
X191 pin.t64 swmatrix_Tgate_4.gf180mcu_fd_sc_mcu9t5v0__inv_1$1_0.ZN.t5 BUS[3].t14 vdd.t188 pfet_03v3 ad=2.6p pd=9.3u as=1.04p ps=4.52u w=4u l=0.28u
X192 a_15788_2122# ShiftReg_row_10_2$1_0.DFF_2phase_1_7.gf180mcu_fd_sc_mcu9t5v0__latq_1$1_1.Q vdd.t371 vdd.t370 pfet_05v0 ad=0.12p pd=1.24u as=0.44p ps=2.88u w=1u l=0.5u
X193 a_1336_2002# a_992_2122# vdd.t117 vdd.t116 pfet_05v0 ad=0.6072p pd=3.64u as=0.3588p ps=1.9u w=1.38u l=0.5u
X194 pin.t98 swmatrix_Tgate_9.gated_control BUS[1].t22 vss.t201 nfet_03v3 ad=2.44p pd=9.22u as=1.04p ps=4.52u w=4u l=0.28u
X195 swmatrix_Tgate_0.gated_control ShiftReg_row_10_2$1_0.DFF_2phase_1_3.gf180mcu_fd_sc_mcu9t5v0__nand2_1_0.ZN vss.t227 vss.t226 nfet_05v0 ad=0.5808p pd=3.52u as=0.5808p ps=3.52u w=1.32u l=0.6u
X196 BUS[10].t20 swmatrix_Tgate_2.gf180mcu_fd_sc_mcu9t5v0__inv_1$1_0.ZN.t5 pin.t133 vdd.t298 pfet_03v3 ad=1.04p pd=4.52u as=1.04p ps=4.52u w=4u l=0.28u
X197 vss.t370 a_53376_2122# ShiftReg_row_10_2$1_0.Q[9] vss.t369 nfet_05v0 ad=0.5808p pd=3.52u as=0.5808p ps=3.52u w=1.32u l=0.6u
X198 pin.t56 swmatrix_Tgate_4.gated_control BUS[3].t21 vss.t102 nfet_03v3 ad=1.04p pd=4.52u as=1.04p ps=4.52u w=4u l=0.28u
X199 BUS[1].t13 swmatrix_Tgate_9.gf180mcu_fd_sc_mcu9t5v0__inv_1$1_0.ZN.t6 pin.t113 vdd.t246 pfet_03v3 ad=1.04p pd=4.52u as=1.04p ps=4.52u w=4u l=0.28u
X200 a_42361_1539# ShiftReg_row_10_2$1_0.Q[7] vss.t353 vss.t352 nfet_05v0 ad=0.2112p pd=1.64u as=0.5808p ps=3.52u w=1.32u l=0.6u
X201 swmatrix_Tgate_4.gated_control ShiftReg_row_10_2$1_0.DFF_2phase_1_7.gf180mcu_fd_sc_mcu9t5v0__nand2_1_0.ZN vdd.t97 vdd.t96 pfet_05v0 ad=0.8052p pd=4.54u as=0.8052p ps=4.54u w=1.83u l=0.5u
X202 BUS[5].t19 swmatrix_Tgate_5.gf180mcu_fd_sc_mcu9t5v0__inv_1$1_0.ZN.t6 pin.t1 vdd.t9 pfet_03v3 ad=1.04p pd=4.52u as=1.04p ps=4.52u w=4u l=0.28u
X203 BUS[9].t20 swmatrix_Tgate_1.gf180mcu_fd_sc_mcu9t5v0__inv_1$1_0.ZN.t7 pin.t214 vdd.t479 pfet_03v3 ad=1.04p pd=4.52u as=1.04p ps=4.52u w=4u l=0.28u
X204 vdd.t146 a_34656_2122# ShiftReg_row_10_2$1_0.Q[6] vdd.t145 pfet_05v0 ad=0.8052p pd=4.54u as=0.8052p ps=4.54u w=1.83u l=0.5u
X205 vdd.t429 a_7576_2002# a_7436_2122# vdd.t428 pfet_05v0 ad=0.3588p pd=1.9u as=0.426p ps=2.08u w=1.38u l=0.5u
X206 ShiftReg_row_10_2$1_0.DFF_2phase_1_6.gf180mcu_fd_sc_mcu9t5v0__nand2_1_0.ZN ShiftReg_row_10_2$1_0.Q[4] vdd.t407 vdd.t406 pfet_05v0 ad=0.4277p pd=2.165u as=0.7238p ps=4.17u w=1.645u l=0.5u
X207 a_9940_1577# a_8712_1562# a_9696_2122# vss.t286 nfet_05v0 ad=0.263p pd=1.49u as=0.182p ps=1.22u w=0.7u l=0.6u
X208 vdd.t39 enable.t6 ShiftReg_row_10_2$1_0.DFF_2phase_1_4.gf180mcu_fd_sc_mcu9t5v0__nand2_1_0.ZN vdd.t38 pfet_05v0 ad=0.7238p pd=4.17u as=0.4277p ps=2.165u w=1.645u l=0.5u
X209 vss.t345 a_7232_2122# ShiftReg_row_10_2$1_0.DFF_2phase_1_9.gf180mcu_fd_sc_mcu9t5v0__latq_1$1_1.Q vss.t344 nfet_05v0 ad=0.5808p pd=3.52u as=0.5808p ps=3.52u w=1.32u l=0.6u
X210 ShiftReg_row_10_2$1_0.DFF_2phase_1_0.gf180mcu_fd_sc_mcu9t5v0__nand2_1_0.ZN d_out.t3 vdd.t431 vdd.t430 pfet_05v0 ad=0.4277p pd=2.165u as=0.7238p ps=4.17u w=1.645u l=0.5u
X211 a_44672_2122# a_44156_1580# a_44524_1577# vss.t46 nfet_05v0 ad=0.182p pd=1.22u as=83.99999f ps=0.94u w=0.7u l=0.6u
X212 vss.t176 a_20056_2002# a_19956_1577# vss.t175 nfet_05v0 ad=0.2054p pd=1.31u as=0.263p ps=1.49u w=0.79u l=0.6u
X213 a_28416_2122# a_27432_1562# a_28268_2122# vdd.t483 pfet_05v0 ad=0.26p pd=1.52u as=0.12p ps=1.24u w=1u l=0.5u
X214 vss.t66 a_13816_2002# a_13716_1577# vss.t65 nfet_05v0 ad=0.2054p pd=1.31u as=0.263p ps=1.49u w=0.79u l=0.6u
X215 pin.t23 swmatrix_Tgate_0.gated_control BUS[7].t3 vss.t52 nfet_03v3 ad=1.04p pd=4.52u as=1.04p ps=4.52u w=4u l=0.28u