* NGSPICE file created from swmatrix_row_10.ext - technology: gf180mcuD
.subckt swmatrix_row_10_pex D_out D_in PHI_1 PHI_2 enable BUS[1] BUS[2] BUS[3] BUS[4] BUS[5] BUS[6] BUS[7] BUS[8] BUS[9] BUS[10] VDD
+ pin VSS
X0 BUS[5].t16 swmatrix_Tgate_5.gf180mcu_fd_sc_mcu9t5v0__inv_1_0.ZN.t2 pin.t25 vdd.t88 pfet_03v3 ad=1.04p pd=4.52u as=1.04p ps=4.52u w=4u l=0.28u
X1 swmatrix_Tgate_3.gated_control ShiftReg_row_10_2$1_0.DFF_2phase_1_2.gf180mcu_fd_sc_mcu9t5v0__inv_1$1_0.I vdd.t428 vdd.t427 pfet_05v0 ad=0.8052p pd=4.54u as=0.8052p ps=4.54u w=1.83u l=0.5u
X2 vdd.t71 a_51256_2002# a_51116_2122# vdd.t70 pfet_05v0 ad=0.3588p pd=1.9u as=0.426p ps=2.08u w=1.38u l=0.5u
X3 a_26296_2002# a_25952_2122# vss.t307 vss.t306 nfet_05v0 ad=0.3476p pd=2.46u as=0.2054p ps=1.31u w=0.79u l=0.6u
X4 a_34508_1577# ShiftReg_row_10_2$1_0.DFF_2phase_1_4.gf180mcu_fd_sc_mcu9t5v0__latq_1_0.D vss.t289 vss.t288 nfet_05v0 ad=83.99999f pd=0.94u as=0.308p ps=2.28u w=0.7u l=0.6u
X5 BUS[8].t7 swmatrix_Tgate_3.gated_control pin.t15 vss.t22 nfet_03v3 ad=1.04p pd=4.52u as=1.04p ps=4.52u w=4u l=0.28u
X6 a_53620_1577# a_52392_1562# a_53376_2122# vss.t206 nfet_05v0 ad=0.263p pd=1.49u as=0.182p ps=1.22u w=0.7u l=0.6u
X7 pin.t194 swmatrix_Tgate_9.gated_control BUS[1].t17 vss.t342 nfet_03v3 ad=2.44p pd=9.22u as=1.04p ps=4.52u w=4u l=0.28u
X8 a_6716_1580# a_6248_1562# vss.t250 vss.t249 nfet_05v0 ad=0.308p pd=2.28u as=0.263p ps=1.49u w=0.7u l=0.6u
X9 pin.t52 swmatrix_Tgate_4.gf180mcu_fd_sc_mcu9t5v0__inv_1_0.ZN.t2 BUS[3].t22 vdd.t113 pfet_03v3 ad=1.04p pd=4.52u as=1.04p ps=4.52u w=4u l=0.28u
X10 BUS[1].t8 swmatrix_Tgate_9.gf180mcu_fd_sc_mcu9t5v0__inv_1_0.ZN.t2 pin.t88 vdd.t228 pfet_03v3 ad=1.04p pd=4.52u as=1.04p ps=4.52u w=4u l=0.28u
X11 vdd.t146 phi_2.t0 a_39912_1562# vdd.t145 pfet_05v0 ad=0.476p pd=2.18u as=0.6072p ps=3.64u w=1.38u l=0.5u
X12 pin.t229 swmatrix_Tgate_3.gf180mcu_fd_sc_mcu9t5v0__inv_1_0.ZN.t2 BUS[8].t22 vdd.t525 pfet_03v3 ad=1.04p pd=4.52u as=1.04p ps=4.52u w=4u l=0.28u
X13 pin.t212 swmatrix_Tgate_6.gf180mcu_fd_sc_mcu9t5v0__inv_1_0.ZN.t2 BUS[6].t16 vdd.t493 pfet_03v3 ad=2.6p pd=9.3u as=1.04p ps=4.52u w=4u l=0.28u
X14 a_4921_1539# ShiftReg_row_10_2$1_0.Q[1] vss.t330 vss.t329 nfet_05v0 ad=0.2112p pd=1.64u as=0.5808p ps=3.52u w=1.32u l=0.6u
X15 vdd.t151 swmatrix_Tgate_5.gated_control swmatrix_Tgate_5.gf180mcu_fd_sc_mcu9t5v0__inv_1_0.ZN.t1 vdd.t150 pfet_05v0 ad=0.8052p pd=4.54u as=0.8052p ps=4.54u w=1.83u l=0.5u
X16 pin.t46 swmatrix_Tgate_2.gated_control BUS[10].t5 vss.t74 nfet_03v3 ad=1.04p pd=4.52u as=1.04p ps=4.52u w=4u l=0.28u
X17 vss.t188 a_45016_2002# a_44916_1577# vss.t187 nfet_05v0 ad=0.2054p pd=1.31u as=0.263p ps=1.49u w=0.79u l=0.6u
X18 vdd.t272 a_3456_2122# ShiftReg_row_10_2$1_0.Q[1] vdd.t271 pfet_05v0 ad=0.8052p pd=4.54u as=0.8052p ps=4.54u w=1.83u l=0.5u
X19 vss.t252 a_38776_2002# a_38676_1577# vss.t251 nfet_05v0 ad=0.2054p pd=1.31u as=0.263p ps=1.49u w=0.79u l=0.6u
X20 ShiftReg_row_10_2$1_0.DFF_2phase_1_9.gf180mcu_fd_sc_mcu9t5v0__inv_1$1_0.I enable.t0 a_11161_1539# vss.t13 nfet_05v0 ad=0.5808p pd=3.52u as=0.2112p ps=1.64u w=1.32u l=0.6u
X21 BUS[8].t0 swmatrix_Tgate_3.gf180mcu_fd_sc_mcu9t5v0__inv_1_0.ZN.t3 pin.t6 vdd.t13 pfet_03v3 ad=1.04p pd=4.52u as=1.04p ps=4.52u w=4u l=0.28u
X22 a_44156_1580# a_43688_1562# vss.t110 vss.t109 nfet_05v0 ad=0.308p pd=2.28u as=0.263p ps=1.49u w=0.7u l=0.6u
X23 a_13472_2122# a_12488_1562# a_13324_2122# vdd.t61 pfet_05v0 ad=0.26p pd=1.52u as=0.12p ps=1.24u w=1u l=0.5u
X24 a_19564_2122# ShiftReg_row_10_2$1_0.Q[3] vdd.t512 vdd.t511 pfet_05v0 ad=0.12p pd=1.24u as=0.44p ps=2.88u w=1u l=0.5u
X25 vdd.t58 a_53720_2002# a_53580_2122# vdd.t57 pfet_05v0 ad=0.3588p pd=1.9u as=0.426p ps=2.08u w=1.38u l=0.5u
X26 BUS[2].t16 swmatrix_Tgate_8.gf180mcu_fd_sc_mcu9t5v0__inv_1_0.ZN.t2 pin.t220 vdd.t507 pfet_03v3 ad=1.04p pd=4.52u as=1.04p ps=4.52u w=4u l=0.28u
X27 vss.t315 phi_1.t0 a_56168_1562# vss.t314 nfet_05v0 ad=0.263p pd=1.49u as=0.3476p ps=2.46u w=0.79u l=0.6u
X28 vdd.t22 enable.t1 ShiftReg_row_10_2$1_0.DFF_2phase_1_8.gf180mcu_fd_sc_mcu9t5v0__inv_1$1_0.I vdd.t21 pfet_05v0 ad=0.7238p pd=4.17u as=0.4277p ps=2.165u w=1.645u l=0.5u
X29 a_26156_2122# a_25436_1580# a_25952_2122# vdd.t391 pfet_05v0 ad=0.426p pd=2.08u as=0.26p ps=1.52u w=1u l=0.5u
X30 a_56636_1580# a_56168_1562# vdd.t475 vdd.t474 pfet_05v0 ad=0.44p pd=2.88u as=0.476p ps=2.18u w=1u l=0.5u
X31 a_19916_2122# a_19196_1580# a_19712_2122# vdd.t110 pfet_05v0 ad=0.426p pd=2.08u as=0.26p ps=1.52u w=1u l=0.5u
X32 swmatrix_Tgate_7.gated_control ShiftReg_row_10_2$1_0.DFF_2phase_1_6.gf180mcu_fd_sc_mcu9t5v0__inv_1$1_0.I vdd.t112 vdd.t111 pfet_05v0 ad=0.8052p pd=4.54u as=0.8052p ps=4.54u w=1.83u l=0.5u
X33 pin.t159 swmatrix_Tgate_7.gf180mcu_fd_sc_mcu9t5v0__inv_1_0.ZN.t2 BUS[4].t16 vdd.t356 pfet_03v3 ad=1.04p pd=4.52u as=1.04p ps=4.52u w=4u l=0.28u
X34 BUS[1].t5 swmatrix_Tgate_9.gf180mcu_fd_sc_mcu9t5v0__inv_1_0.ZN.t3 pin.t85 vdd.t225 pfet_03v3 ad=1.04p pd=4.52u as=1.04p ps=4.52u w=4u l=0.28u
X35 pin.t77 swmatrix_Tgate_8.gf180mcu_fd_sc_mcu9t5v0__inv_1_0.ZN.t3 BUS[2].t15 vdd.t195 pfet_03v3 ad=1.04p pd=4.52u as=1.04p ps=4.52u w=4u l=0.28u
X36 vdd.t495 phi_1.t1 a_12488_1562# vdd.t494 pfet_05v0 ad=0.476p pd=2.18u as=0.6072p ps=3.64u w=1.38u l=0.5u
X37 a_7576_2002# a_7232_2122# vdd.t241 vdd.t240 pfet_05v0 ad=0.6072p pd=3.64u as=0.3588p ps=1.9u w=1.38u l=0.5u
X38 swmatrix_Tgate_2.gated_control ShiftReg_row_10_2$1_0.DFF_2phase_1_0.gf180mcu_fd_sc_mcu9t5v0__inv_1$1_0.I vdd.t411 vdd.t410 pfet_05v0 ad=0.8052p pd=4.54u as=0.8052p ps=4.54u w=1.83u l=0.5u
X39 swmatrix_Tgate_1.gated_control ShiftReg_row_10_2$1_0.DFF_2phase_1_1.gf180mcu_fd_sc_mcu9t5v0__inv_1$1_0.I vss.t141 vss.t140 nfet_05v0 ad=0.5808p pd=3.52u as=0.5808p ps=3.52u w=1.32u l=0.6u
X40 vss.t220 a_47480_2002# a_47380_1577# vss.t219 nfet_05v0 ad=0.2054p pd=1.31u as=0.263p ps=1.49u w=0.79u l=0.6u
X41 vdd.t497 phi_1.t2 a_8_1562# vdd.t496 pfet_05v0 ad=0.476p pd=2.18u as=0.6072p ps=3.64u w=1.38u l=0.5u
X42 vss.t73 swmatrix_Tgate_2.gated_control swmatrix_Tgate_2.gf180mcu_fd_sc_mcu9t5v0__inv_1_0.ZN.t0 vss.t72 nfet_05v0 ad=0.5808p pd=3.52u as=0.5808p ps=3.52u w=1.32u l=0.6u
X43 pin.t86 swmatrix_Tgate_9.gf180mcu_fd_sc_mcu9t5v0__inv_1_0.ZN.t4 BUS[1].t6 vdd.t226 pfet_03v3 ad=1.04p pd=4.52u as=1.04p ps=4.52u w=4u l=0.28u
X44 a_48601_1539# ShiftReg_row_10_2$1_0.Q[8] vss.t322 vss.t321 nfet_05v0 ad=0.2112p pd=1.64u as=0.5808p ps=3.52u w=1.32u l=0.6u
X45 a_46620_1580# a_46152_1562# vss.t318 vss.t317 nfet_05v0 ad=0.308p pd=2.28u as=0.263p ps=1.49u w=0.7u l=0.6u
X46 BUS[6].t15 swmatrix_Tgate_6.gf180mcu_fd_sc_mcu9t5v0__inv_1_0.ZN.t3 pin.t152 vdd.t349 pfet_03v3 ad=1.04p pd=4.52u as=1.04p ps=4.52u w=4u l=0.28u
X47 vss.t105 phi_2.t1 a_58632_1562# vss.t104 nfet_05v0 ad=0.263p pd=1.49u as=0.3476p ps=2.46u w=0.79u l=0.6u
X48 a_34900_1577# a_33672_1562# a_34656_2122# vss.t158 nfet_05v0 ad=0.263p pd=1.49u as=0.182p ps=1.22u w=0.7u l=0.6u
X49 a_28620_2122# a_27900_1580# a_28416_2122# vdd.t62 pfet_05v0 ad=0.426p pd=2.08u as=0.26p ps=1.52u w=1u l=0.5u
X50 pin.t53 swmatrix_Tgate_4.gf180mcu_fd_sc_mcu9t5v0__inv_1_0.ZN.t3 BUS[3].t21 vdd.t114 pfet_03v3 ad=1.04p pd=4.52u as=2.6p ps=9.3u w=4u l=0.28u
X51 ShiftReg_row_10_2$1_0.DFF_2phase_1_5.gf180mcu_fd_sc_mcu9t5v0__inv_1$1_0.I ShiftReg_row_10_2$1_0.Q[5] vdd.t157 vdd.t156 pfet_05v0 ad=0.4277p pd=2.165u as=0.7238p ps=4.17u w=1.645u l=0.5u
X52 vss.t256 a_32192_2122# ShiftReg_row_10_2$1_0.DFF_2phase_1_4.gf180mcu_fd_sc_mcu9t5v0__latq_1_0.D vss.t255 nfet_05v0 ad=0.5808p pd=3.52u as=0.5808p ps=3.52u w=1.32u l=0.6u
X53 pin.t147 swmatrix_Tgate_2.gf180mcu_fd_sc_mcu9t5v0__inv_1_0.ZN.t2 BUS[10].t16 vdd.t327 pfet_03v3 ad=1.04p pd=4.52u as=1.04p ps=4.52u w=4u l=0.28u
X54 vss.t305 a_25952_2122# ShiftReg_row_10_2$1_0.DFF_2phase_1_5.gf180mcu_fd_sc_mcu9t5v0__latq_1_0.D vss.t304 nfet_05v0 ad=0.5808p pd=3.52u as=0.5808p ps=3.52u w=1.32u l=0.6u
X55 pin.t7 swmatrix_Tgate_3.gf180mcu_fd_sc_mcu9t5v0__inv_1_0.ZN.t4 BUS[8].t1 vdd.t14 pfet_03v3 ad=1.04p pd=4.52u as=1.04p ps=4.52u w=4u l=0.28u
X56 pin.t142 swmatrix_Tgate_7.gf180mcu_fd_sc_mcu9t5v0__inv_1_0.ZN.t3 BUS[4].t15 vdd.t322 pfet_03v3 ad=1.04p pd=4.52u as=2.6p ps=9.3u w=4u l=0.28u
X57 a_45016_2002# a_44672_2122# vdd.t18 vdd.t17 pfet_05v0 ad=0.6072p pd=3.64u as=0.3588p ps=1.9u w=1.38u l=0.5u
X58 vss.t384 phi_1.t3 a_8_1562# vss.t383 nfet_05v0 ad=0.263p pd=1.49u as=0.3476p ps=2.46u w=0.79u l=0.6u
X59 pin.t209 swmatrix_Tgate_1.gated_control BUS[9].t21 vss.t380 nfet_03v3 ad=1.04p pd=4.52u as=1.04p ps=4.52u w=4u l=0.28u
X60 vdd.t380 swmatrix_Tgate_4.gated_control swmatrix_Tgate_4.gf180mcu_fd_sc_mcu9t5v0__inv_1_0.ZN.t1 vdd.t379 pfet_05v0 ad=0.8052p pd=4.54u as=0.8052p ps=4.54u w=1.83u l=0.5u
X61 vss.t107 phi_2.t2 a_2472_1562# vss.t106 nfet_05v0 ad=0.263p pd=1.49u as=0.3476p ps=2.46u w=0.79u l=0.6u
X62 vdd.t31 a_13472_2122# ShiftReg_row_10_2$1_0.DFF_2phase_1_7.gf180mcu_fd_sc_mcu9t5v0__latq_1_0.D vdd.t30 pfet_05v0 ad=0.8052p pd=4.54u as=0.8052p ps=4.54u w=1.83u l=0.5u
X63 a_32044_2122# ShiftReg_row_10_2$1_0.Q[5] vdd.t155 vdd.t154 pfet_05v0 ad=0.12p pd=1.24u as=0.44p ps=2.88u w=1u l=0.5u
X64 BUS[10].t6 swmatrix_Tgate_2.gf180mcu_fd_sc_mcu9t5v0__inv_1_0.ZN.t3 pin.t80 vdd.t213 pfet_03v3 ad=1.04p pd=4.52u as=1.04p ps=4.52u w=4u l=0.28u
X65 vss.t126 swmatrix_Tgate_8.gated_control swmatrix_Tgate_8.gf180mcu_fd_sc_mcu9t5v0__inv_1_0.ZN.t0 vss.t125 nfet_05v0 ad=0.5808p pd=3.52u as=0.5808p ps=3.52u w=1.32u l=0.6u
X66 a_2940_1580# a_2472_1562# vdd.t99 vdd.t98 pfet_05v0 ad=0.44p pd=2.88u as=0.476p ps=2.18u w=1u l=0.5u
X67 BUS[8].t16 swmatrix_Tgate_3.gf180mcu_fd_sc_mcu9t5v0__inv_1_0.ZN.t5 pin.t113 vdd.t281 pfet_03v3 ad=1.04p pd=4.52u as=1.04p ps=4.52u w=4u l=0.28u
X68 a_53376_2122# a_52860_1580# a_53228_1577# vss.t290 nfet_05v0 ad=0.182p pd=1.22u as=83.99999f ps=0.94u w=0.7u l=0.6u
X69 BUS[4].t14 swmatrix_Tgate_7.gf180mcu_fd_sc_mcu9t5v0__inv_1_0.ZN.t4 pin.t143 vdd.t323 pfet_03v3 ad=1.04p pd=4.52u as=1.04p ps=4.52u w=4u l=0.28u
X70 BUS[9].t8 swmatrix_Tgate_1.gf180mcu_fd_sc_mcu9t5v0__inv_1_0.ZN.t2 pin.t148 vdd.t339 pfet_03v3 ad=1.04p pd=4.52u as=1.04p ps=4.52u w=4u l=0.28u
X71 BUS[7].t16 swmatrix_Tgate_0.gf180mcu_fd_sc_mcu9t5v0__inv_1_0.ZN.t2 pin.t165 vdd.t366 pfet_03v3 ad=1.04p pd=4.52u as=1.04p ps=4.52u w=4u l=0.28u
X72 vdd.t199 a_50912_2122# ShiftReg_row_10_2$1_0.DFF_2phase_1_1.gf180mcu_fd_sc_mcu9t5v0__latq_1_0.D vdd.t198 pfet_05v0 ad=0.8052p pd=4.54u as=0.8052p ps=4.54u w=1.83u l=0.5u
X73 swmatrix_Tgate_5.gated_control ShiftReg_row_10_2$1_0.DFF_2phase_1_5.gf180mcu_fd_sc_mcu9t5v0__inv_1$1_0.I vss.t85 vss.t84 nfet_05v0 ad=0.5808p pd=3.52u as=0.5808p ps=3.52u w=1.32u l=0.6u
X74 BUS[3].t5 swmatrix_Tgate_4.gated_control pin.t174 vss.t264 nfet_03v3 ad=1.04p pd=4.52u as=1.04p ps=4.52u w=4u l=0.28u
X75 a_28760_2002# a_28416_2122# vss.t247 vss.t246 nfet_05v0 ad=0.3476p pd=2.46u as=0.2054p ps=1.31u w=0.79u l=0.6u
X76 pin.t153 swmatrix_Tgate_6.gf180mcu_fd_sc_mcu9t5v0__inv_1_0.ZN.t4 BUS[6].t14 vdd.t350 pfet_03v3 ad=1.04p pd=4.52u as=1.04p ps=4.52u w=4u l=0.28u
X77 pin.t0 swmatrix_Tgate_8.gf180mcu_fd_sc_mcu9t5v0__inv_1_0.ZN.t4 BUS[2].t14 vdd.t0 pfet_03v3 ad=1.04p pd=4.52u as=1.04p ps=4.52u w=4u l=0.28u
X78 BUS[1].t7 swmatrix_Tgate_9.gf180mcu_fd_sc_mcu9t5v0__inv_1_0.ZN.t5 pin.t87 vdd.t227 pfet_03v3 ad=1.04p pd=4.52u as=1.04p ps=4.52u w=4u l=0.28u
X79 a_47480_2002# a_47136_2122# vdd.t207 vdd.t206 pfet_05v0 ad=0.6072p pd=3.64u as=0.3588p ps=1.9u w=1.38u l=0.5u
X80 vss.t359 a_34656_2122# ShiftReg_row_10_2$1_0.Q[6] vss.t358 nfet_05v0 ad=0.5808p pd=3.52u as=0.5808p ps=3.52u w=1.32u l=0.6u
X81 a_23641_1539# ShiftReg_row_10_2$1_0.Q[4] vss.t199 vss.t198 nfet_05v0 ad=0.2112p pd=1.64u as=0.5808p ps=3.52u w=1.32u l=0.6u
X82 vss.t235 phi_2.t3 a_39912_1562# vss.t234 nfet_05v0 ad=0.263p pd=1.49u as=0.3476p ps=2.46u w=0.79u l=0.6u
X83 pin.t124 swmatrix_Tgate_1.gf180mcu_fd_sc_mcu9t5v0__inv_1_0.ZN.t3 BUS[9].t4 vdd.t298 pfet_03v3 ad=1.04p pd=4.52u as=1.04p ps=4.52u w=4u l=0.28u
X84 a_7084_1577# ShiftReg_row_10_2$1_0.Q[1] vss.t328 vss.t327 nfet_05v0 ad=83.99999f pd=0.94u as=0.308p ps=2.28u w=0.7u l=0.6u
X85 a_1336_2002# a_992_2122# vss.t89 vss.t88 nfet_05v0 ad=0.3476p pd=2.46u as=0.2054p ps=1.31u w=0.79u l=0.6u
X86 vdd.t56 a_22176_2122# ShiftReg_row_10_2$1_0.Q[4] vdd.t55 pfet_05v0 ad=0.8052p pd=4.54u as=0.8052p ps=4.54u w=1.83u l=0.5u
X87 ShiftReg_row_10_2$1_0.DFF_2phase_1_9.gf180mcu_fd_sc_mcu9t5v0__inv_1$1_0.I ShiftReg_row_10_2$1_0.Q[2] vdd.t41 vdd.t40 pfet_05v0 ad=0.4277p pd=2.165u as=0.7238p ps=4.17u w=1.645u l=0.5u
X88 vdd.t124 a_15936_2122# ShiftReg_row_10_2$1_0.Q[3] vdd.t123 pfet_05v0 ad=0.8052p pd=4.54u as=0.8052p ps=4.54u w=1.83u l=0.5u
X89 BUS[2].t13 swmatrix_Tgate_8.gf180mcu_fd_sc_mcu9t5v0__inv_1_0.ZN.t5 pin.t1 vdd.t1 pfet_03v3 ad=1.04p pd=4.52u as=1.04p ps=4.52u w=4u l=0.28u
X90 a_61081_1539# d_out.t2 vss.t233 vss.t232 nfet_05v0 ad=0.2112p pd=1.64u as=0.5808p ps=3.52u w=1.32u l=0.6u
X91 pin.t60 swmatrix_Tgate_5.gated_control BUS[5].t22 vss.t118 nfet_03v3 ad=1.04p pd=4.52u as=1.04p ps=4.52u w=4u l=0.28u
X92 BUS[8].t17 swmatrix_Tgate_3.gf180mcu_fd_sc_mcu9t5v0__inv_1_0.ZN.t6 pin.t114 vdd.t282 pfet_03v3 ad=1.04p pd=4.52u as=1.04p ps=4.52u w=4u l=0.28u
X93 a_27900_1580# a_27432_1562# vss.t92 vss.t91 nfet_05v0 ad=0.308p pd=2.28u as=0.263p ps=1.49u w=0.7u l=0.6u
X94 BUS[5].t15 swmatrix_Tgate_5.gf180mcu_fd_sc_mcu9t5v0__inv_1_0.ZN.t3 pin.t31 vdd.t87 pfet_03v3 ad=1.04p pd=4.52u as=1.04p ps=4.52u w=4u l=0.28u
X95 vss.t379 swmatrix_Tgate_1.gated_control swmatrix_Tgate_1.gf180mcu_fd_sc_mcu9t5v0__inv_1_0.ZN.t0 vss.t378 nfet_05v0 ad=0.5808p pd=3.52u as=0.5808p ps=3.52u w=1.32u l=0.6u
X96 BUS[3].t20 swmatrix_Tgate_4.gf180mcu_fd_sc_mcu9t5v0__inv_1_0.ZN.t4 pin.t19 vdd.t45 pfet_03v3 ad=1.04p pd=4.52u as=1.04p ps=4.52u w=4u l=0.28u
X97 vdd.t219 a_59616_2122# d_out.t1 vdd.t218 pfet_05v0 ad=0.8052p pd=4.54u as=0.8052p ps=4.54u w=1.83u l=0.5u
X98 a_32192_2122# a_31676_1580# a_32044_1577# vss.t231 nfet_05v0 ad=0.182p pd=1.22u as=83.99999f ps=0.94u w=0.7u l=0.6u
X99 a_25952_2122# a_25436_1580# a_25804_1577# vss.t275 nfet_05v0 ad=0.182p pd=1.22u as=83.99999f ps=0.94u w=0.7u l=0.6u
X100 BUS[7].t22 swmatrix_Tgate_0.gated_control pin.t217 vss.t392 nfet_03v3 ad=1.04p pd=4.52u as=2.44p ps=9.22u w=4u l=0.28u
X101 pin.t81 swmatrix_Tgate_2.gf180mcu_fd_sc_mcu9t5v0__inv_1_0.ZN.t4 BUS[10].t7 vdd.t214 pfet_03v3 ad=1.04p pd=4.52u as=2.6p ps=9.3u w=4u l=0.28u
X102 a_44524_1577# ShiftReg_row_10_2$1_0.Q[7] vss.t274 vss.t273 nfet_05v0 ad=83.99999f pd=0.94u as=0.308p ps=2.28u w=0.7u l=0.6u
X103 pin.t199 swmatrix_Tgate_9.gated_control BUS[1].t16 vss.t341 nfet_03v3 ad=1.04p pd=4.52u as=1.04p ps=4.52u w=4u l=0.28u
X104 vdd.t445 phi_1.t4 a_49928_1562# vdd.t444 pfet_05v0 ad=0.476p pd=2.18u as=0.6072p ps=3.64u w=1.38u l=0.5u
X105 vdd.t462 enable.t2 ShiftReg_row_10_2$1_0.DFF_2phase_1_0.gf180mcu_fd_sc_mcu9t5v0__inv_1$1_0.I vdd.t461 pfet_05v0 ad=0.7238p pd=4.17u as=0.4277p ps=2.165u w=1.645u l=0.5u
X106 pin.t27 swmatrix_Tgate_5.gf180mcu_fd_sc_mcu9t5v0__inv_1_0.ZN.t4 BUS[5].t14 vdd.t86 pfet_03v3 ad=1.04p pd=4.52u as=1.04p ps=4.52u w=4u l=0.28u
X107 vdd.t464 enable.t3 ShiftReg_row_10_2$1_0.DFF_2phase_1_1.gf180mcu_fd_sc_mcu9t5v0__inv_1$1_0.I vdd.t463 pfet_05v0 ad=0.7238p pd=4.17u as=0.4277p ps=2.165u w=1.645u l=0.5u
X108 ShiftReg_row_10_2$1_0.DFF_2phase_1_2.gf180mcu_fd_sc_mcu9t5v0__inv_1$1_0.I enable.t4 a_48601_1539# vss.t345 nfet_05v0 ad=0.5808p pd=3.52u as=0.2112p ps=1.64u w=1.32u l=0.6u
X109 vss.t324 phi_1.t5 a_12488_1562# vss.t323 nfet_05v0 ad=0.263p pd=1.49u as=0.3476p ps=2.46u w=0.79u l=0.6u
X110 pin.t125 swmatrix_Tgate_1.gf180mcu_fd_sc_mcu9t5v0__inv_1_0.ZN.t4 BUS[9].t5 vdd.t299 pfet_03v3 ad=1.04p pd=4.52u as=1.04p ps=4.52u w=4u l=0.28u
X111 a_59468_2122# ShiftReg_row_10_2$1_0.DFF_2phase_1_0.gf180mcu_fd_sc_mcu9t5v0__latq_1_0.D vdd.t501 vdd.t500 pfet_05v0 ad=0.12p pd=1.24u as=0.44p ps=2.88u w=1u l=0.5u
X112 a_53376_2122# a_52392_1562# a_53228_2122# vdd.t280 pfet_05v0 ad=0.26p pd=1.52u as=0.12p ps=1.24u w=1u l=0.5u
X113 pin.t216 swmatrix_Tgate_0.gated_control BUS[7].t21 vss.t391 nfet_03v3 ad=1.04p pd=4.52u as=1.04p ps=4.52u w=4u l=0.28u
X114 a_12956_1580# a_12488_1562# vdd.t60 vdd.t59 pfet_05v0 ad=0.44p pd=2.88u as=0.476p ps=2.18u w=1u l=0.5u
X115 a_22520_2002# a_22176_2122# vdd.t54 vdd.t53 pfet_05v0 ad=0.6072p pd=3.64u as=0.3588p ps=1.9u w=1.38u l=0.5u
X116 pin.t14 swmatrix_Tgate_3.gated_control BUS[8].t6 vss.t21 nfet_03v3 ad=1.04p pd=4.52u as=1.04p ps=4.52u w=4u l=0.28u
X117 BUS[9].t22 swmatrix_Tgate_1.gf180mcu_fd_sc_mcu9t5v0__inv_1_0.ZN.t5 pin.t221 vdd.t508 pfet_03v3 ad=1.04p pd=4.52u as=1.04p ps=4.52u w=4u l=0.28u
X118 a_45016_2002# a_44672_2122# vss.t10 vss.t9 nfet_05v0 ad=0.3476p pd=2.46u as=0.2054p ps=1.31u w=0.79u l=0.6u
X119 vss.t117 swmatrix_Tgate_5.gated_control swmatrix_Tgate_5.gf180mcu_fd_sc_mcu9t5v0__inv_1_0.ZN.t0 vss.t116 nfet_05v0 ad=0.5808p pd=3.52u as=0.5808p ps=3.52u w=1.32u l=0.6u
X120 a_46988_1577# ShiftReg_row_10_2$1_0.DFF_2phase_1_2.gf180mcu_fd_sc_mcu9t5v0__latq_1_0.D vss.t155 vss.t154 nfet_05v0 ad=83.99999f pd=0.94u as=0.308p ps=2.28u w=0.7u l=0.6u
X121 a_41240_2002# a_40896_2122# vss.t287 vss.t286 nfet_05v0 ad=0.3476p pd=2.46u as=0.2054p ps=1.31u w=0.79u l=0.6u
X122 a_844_2122# D_in.t0 vdd.t517 vdd.t516 pfet_05v0 ad=0.12p pd=1.24u as=0.44p ps=2.88u w=1u l=0.5u
X123 vss.t160 a_10040_2002# a_9940_1577# vss.t159 nfet_05v0 ad=0.2054p pd=1.31u as=0.263p ps=1.49u w=0.79u l=0.6u
X124 pin.t2 swmatrix_Tgate_8.gf180mcu_fd_sc_mcu9t5v0__inv_1_0.ZN.t6 BUS[2].t12 vdd.t2 pfet_03v3 ad=1.04p pd=4.52u as=2.6p ps=9.3u w=4u l=0.28u
X125 BUS[10].t4 swmatrix_Tgate_2.gated_control pin.t45 vss.t71 nfet_03v3 ad=1.04p pd=4.52u as=1.04p ps=4.52u w=4u l=0.28u
X126 vdd.t344 phi_2.t4 a_52392_1562# vdd.t343 pfet_05v0 ad=0.476p pd=2.18u as=0.6072p ps=3.64u w=1.38u l=0.5u
X127 vss.t237 phi_2.t5 a_21192_1562# vss.t236 nfet_05v0 ad=0.263p pd=1.49u as=0.3476p ps=2.46u w=0.79u l=0.6u
X128 vdd.t94 a_35000_2002# a_34860_2122# vdd.t93 pfet_05v0 ad=0.3588p pd=1.9u as=0.426p ps=2.08u w=1.38u l=0.5u
X129 swmatrix_Tgate_9.gated_control ShiftReg_row_10_2$1_0.DFF_2phase_1_8.gf180mcu_fd_sc_mcu9t5v0__inv_1$1_0.I vdd.t173 vdd.t172 pfet_05v0 ad=0.8052p pd=4.54u as=0.8052p ps=4.54u w=1.83u l=0.5u
X130 pin.t26 swmatrix_Tgate_5.gf180mcu_fd_sc_mcu9t5v0__inv_1_0.ZN.t5 BUS[5].t13 vdd.t85 pfet_03v3 ad=1.04p pd=4.52u as=1.04p ps=4.52u w=4u l=0.28u
X131 pin.t20 swmatrix_Tgate_4.gf180mcu_fd_sc_mcu9t5v0__inv_1_0.ZN.t5 BUS[3].t19 vdd.t46 pfet_03v3 ad=1.04p pd=4.52u as=1.04p ps=4.52u w=4u l=0.28u
X132 a_21660_1580# a_21192_1562# vdd.t260 vdd.t259 pfet_05v0 ad=0.44p pd=2.88u as=0.476p ps=2.18u w=1u l=0.5u
X133 pin.t189 swmatrix_Tgate_2.gf180mcu_fd_sc_mcu9t5v0__inv_1_0.ZN.t5 BUS[10].t22 vdd.t422 pfet_03v3 ad=1.04p pd=4.52u as=1.04p ps=4.52u w=4u l=0.28u
X134 pin.t44 swmatrix_Tgate_2.gated_control BUS[10].t3 vss.t70 nfet_03v3 ad=2.44p pd=9.22u as=1.04p ps=4.52u w=4u l=0.28u
X135 vss.t174 a_57496_2002# a_57396_1577# vss.t173 nfet_05v0 ad=0.2054p pd=1.31u as=0.263p ps=1.49u w=0.79u l=0.6u
X136 a_38284_2122# ShiftReg_row_10_2$1_0.Q[6] vdd.t294 vdd.t293 pfet_05v0 ad=0.12p pd=1.24u as=0.44p ps=2.88u w=1u l=0.5u
X137 ShiftReg_row_10_2$1_0.DFF_2phase_1_8.gf180mcu_fd_sc_mcu9t5v0__inv_1$1_0.I ShiftReg_row_10_2$1_0.Q[1] vdd.t449 vdd.t448 pfet_05v0 ad=0.4277p pd=2.165u as=0.7238p ps=4.17u w=1.645u l=0.5u
X138 ShiftReg_row_10_2$1_0.DFF_2phase_1_6.gf180mcu_fd_sc_mcu9t5v0__inv_1$1_0.I enable.t5 a_23641_1539# vss.t11 nfet_05v0 ad=0.5808p pd=3.52u as=0.2112p ps=1.64u w=1.32u l=0.6u
X139 a_32192_2122# a_31208_1562# a_32044_2122# vdd.t140 pfet_05v0 ad=0.26p pd=1.52u as=0.12p ps=1.24u w=1u l=0.5u
X140 a_56636_1580# a_56168_1562# vss.t353 vss.t352 nfet_05v0 ad=0.308p pd=2.28u as=0.263p ps=1.49u w=0.7u l=0.6u
X141 a_9180_1580# a_8712_1562# vdd.t421 vdd.t420 pfet_05v0 ad=0.44p pd=2.88u as=0.476p ps=2.18u w=1u l=0.5u
X142 a_25952_2122# a_24968_1562# a_25804_2122# vdd.t418 pfet_05v0 ad=0.26p pd=1.52u as=0.12p ps=1.24u w=1u l=0.5u
X143 BUS[5].t12 swmatrix_Tgate_5.gf180mcu_fd_sc_mcu9t5v0__inv_1_0.ZN.t6 pin.t40 vdd.t84 pfet_03v3 ad=1.04p pd=4.52u as=1.04p ps=4.52u w=4u l=0.28u
X144 a_34508_2122# ShiftReg_row_10_2$1_0.DFF_2phase_1_4.gf180mcu_fd_sc_mcu9t5v0__latq_1_0.D vdd.t402 vdd.t401 pfet_05v0 ad=0.12p pd=1.24u as=0.44p ps=2.88u w=1u l=0.5u
X145 BUS[3].t18 swmatrix_Tgate_4.gf180mcu_fd_sc_mcu9t5v0__inv_1_0.ZN.t6 pin.t21 vdd.t47 pfet_03v3 ad=1.04p pd=4.52u as=1.04p ps=4.52u w=4u l=0.28u
X146 BUS[10].t19 swmatrix_Tgate_2.gf180mcu_fd_sc_mcu9t5v0__inv_1_0.ZN.t6 pin.t162 vdd.t359 pfet_03v3 ad=1.04p pd=4.52u as=1.04p ps=4.52u w=4u l=0.28u
X147 a_44916_1577# a_43688_1562# a_44672_2122# vss.t108 nfet_05v0 ad=0.263p pd=1.49u as=0.182p ps=1.22u w=0.7u l=0.6u
X148 a_38636_2122# a_37916_1580# a_38432_2122# vdd.t169 pfet_05v0 ad=0.426p pd=2.08u as=0.26p ps=1.52u w=1u l=0.5u
X149 BUS[2].t22 swmatrix_Tgate_8.gated_control pin.t67 vss.t124 nfet_03v3 ad=1.04p pd=4.52u as=1.04p ps=4.52u w=4u l=0.28u
X150 BUS[2].t11 swmatrix_Tgate_8.gf180mcu_fd_sc_mcu9t5v0__inv_1_0.ZN.t7 pin.t3 vdd.t3 pfet_03v3 ad=1.04p pd=4.52u as=1.04p ps=4.52u w=4u l=0.28u
X151 a_25804_1577# ShiftReg_row_10_2$1_0.Q[4] vss.t197 vss.t196 nfet_05v0 ad=83.99999f pd=0.94u as=0.308p ps=2.28u w=0.7u l=0.6u
X152 vss.t334 a_1336_2002# a_1236_1577# vss.t333 nfet_05v0 ad=0.2054p pd=1.31u as=0.263p ps=1.49u w=0.79u l=0.6u
X153 a_20056_2002# a_19712_2122# vss.t55 vss.t54 nfet_05v0 ad=0.3476p pd=2.46u as=0.2054p ps=1.31u w=0.79u l=0.6u
X154 a_22028_1577# ShiftReg_row_10_2$1_0.DFF_2phase_1_6.gf180mcu_fd_sc_mcu9t5v0__latq_1_0.D vss.t144 vss.t143 nfet_05v0 ad=83.99999f pd=0.94u as=0.308p ps=2.28u w=0.7u l=0.6u
X155 pin.t154 swmatrix_Tgate_6.gf180mcu_fd_sc_mcu9t5v0__inv_1_0.ZN.t5 BUS[6].t13 vdd.t351 pfet_03v3 ad=1.04p pd=4.52u as=1.04p ps=4.52u w=4u l=0.28u
X156 a_16180_1577# a_14952_1562# a_15936_2122# vss.t223 nfet_05v0 ad=0.263p pd=1.49u as=0.182p ps=1.22u w=0.7u l=0.6u
X157 pin.t130 swmatrix_Tgate_7.gf180mcu_fd_sc_mcu9t5v0__inv_1_0.ZN.t5 BUS[4].t13 vdd.t310 pfet_03v3 ad=1.04p pd=4.52u as=1.04p ps=4.52u w=4u l=0.28u
X158 pin.t69 swmatrix_Tgate_8.gated_control BUS[2].t21 vss.t123 nfet_03v3 ad=2.44p pd=9.22u as=1.04p ps=4.52u w=4u l=0.28u
X159 a_9548_1577# ShiftReg_row_10_2$1_0.DFF_2phase_1_9.gf180mcu_fd_sc_mcu9t5v0__latq_1_0.D vss.t34 vss.t33 nfet_05v0 ad=83.99999f pd=0.94u as=0.308p ps=2.28u w=0.7u l=0.6u
X160 BUS[8].t18 swmatrix_Tgate_3.gf180mcu_fd_sc_mcu9t5v0__inv_1_0.ZN.t7 pin.t115 vdd.t283 pfet_03v3 ad=1.04p pd=4.52u as=1.04p ps=4.52u w=4u l=0.28u
X161 BUS[6].t12 swmatrix_Tgate_6.gf180mcu_fd_sc_mcu9t5v0__inv_1_0.ZN.t6 pin.t22 vdd.t48 pfet_03v3 ad=1.04p pd=4.52u as=1.04p ps=4.52u w=4u l=0.28u
X162 vss.t263 swmatrix_Tgate_4.gated_control swmatrix_Tgate_4.gf180mcu_fd_sc_mcu9t5v0__inv_1_0.ZN.t0 vss.t262 nfet_05v0 ad=0.5808p pd=3.52u as=0.5808p ps=3.52u w=1.32u l=0.6u
X163 BUS[3].t17 swmatrix_Tgate_4.gf180mcu_fd_sc_mcu9t5v0__inv_1_0.ZN.t7 pin.t89 vdd.t229 pfet_03v3 ad=1.04p pd=4.52u as=1.04p ps=4.52u w=4u l=0.28u
X164 pin.t16 swmatrix_Tgate_9.gf180mcu_fd_sc_mcu9t5v0__inv_1_0.ZN.t6 BUS[1].t0 vdd.t42 pfet_03v3 ad=1.04p pd=4.52u as=1.04p ps=4.52u w=4u l=0.28u
X165 a_47340_2122# a_46620_1580# a_47136_2122# vdd.t486 pfet_05v0 ad=0.426p pd=2.08u as=0.26p ps=1.52u w=1u l=0.5u
X166 a_22520_2002# a_22176_2122# vss.t38 vss.t37 nfet_05v0 ad=0.3476p pd=2.46u as=0.2054p ps=1.31u w=0.79u l=0.6u
X167 ShiftReg_row_10_2$1_0.DFF_2phase_1_2.gf180mcu_fd_sc_mcu9t5v0__inv_1$1_0.I ShiftReg_row_10_2$1_0.Q[8] vdd.t443 vdd.t442 pfet_05v0 ad=0.4277p pd=2.165u as=0.7238p ps=4.17u w=1.645u l=0.5u
X168 a_13324_2122# ShiftReg_row_10_2$1_0.Q[2] vdd.t39 vdd.t38 pfet_05v0 ad=0.12p pd=1.24u as=0.44p ps=2.88u w=1u l=0.5u
X169 vss.t8 a_44672_2122# ShiftReg_row_10_2$1_0.DFF_2phase_1_2.gf180mcu_fd_sc_mcu9t5v0__latq_1_0.D vss.t7 nfet_05v0 ad=0.5808p pd=3.52u as=0.5808p ps=3.52u w=1.32u l=0.6u
X170 vss.t297 a_3800_2002# a_3700_1577# vss.t296 nfet_05v0 ad=0.2054p pd=1.31u as=0.263p ps=1.49u w=0.79u l=0.6u
X171 vdd.t346 phi_2.t6 a_33672_1562# vdd.t345 pfet_05v0 ad=0.476p pd=2.18u as=0.6072p ps=3.64u w=1.38u l=0.5u
X172 vss.t326 phi_1.t6 a_49928_1562# vss.t325 nfet_05v0 ad=0.263p pd=1.49u as=0.3476p ps=2.46u w=0.79u l=0.6u
X173 a_28416_2122# a_27900_1580# a_28268_1577# vss.t44 nfet_05v0 ad=0.182p pd=1.22u as=83.99999f ps=0.94u w=0.7u l=0.6u
X174 pin.t35 swmatrix_Tgate_5.gf180mcu_fd_sc_mcu9t5v0__inv_1_0.ZN.t7 BUS[5].t11 vdd.t83 pfet_03v3 ad=1.04p pd=4.52u as=2.6p ps=9.3u w=4u l=0.28u
X175 a_57496_2002# a_57152_2122# vdd.t103 vdd.t102 pfet_05v0 ad=0.6072p pd=3.64u as=0.3588p ps=1.9u w=1.38u l=0.5u
X176 a_2940_1580# a_2472_1562# vss.t62 vss.t61 nfet_05v0 ad=0.308p pd=2.28u as=0.263p ps=1.49u w=0.7u l=0.6u
X177 vdd.t135 a_16280_2002# a_16140_2122# vdd.t134 pfet_05v0 ad=0.3588p pd=1.9u as=0.426p ps=2.08u w=1.38u l=0.5u
X178 BUS[9].t20 swmatrix_Tgate_1.gated_control pin.t208 vss.t377 nfet_03v3 ad=1.04p pd=4.52u as=1.04p ps=4.52u w=4u l=0.28u
X179 vdd.t378 a_32192_2122# ShiftReg_row_10_2$1_0.DFF_2phase_1_4.gf180mcu_fd_sc_mcu9t5v0__latq_1_0.D vdd.t377 pfet_05v0 ad=0.8052p pd=4.54u as=0.8052p ps=4.54u w=1.83u l=0.5u
X180 vdd.t426 a_25952_2122# ShiftReg_row_10_2$1_0.DFF_2phase_1_5.gf180mcu_fd_sc_mcu9t5v0__latq_1_0.D vdd.t425 pfet_05v0 ad=0.8052p pd=4.54u as=0.8052p ps=4.54u w=1.83u l=0.5u
X181 a_50764_2122# ShiftReg_row_10_2$1_0.Q[8] vdd.t441 vdd.t440 pfet_05v0 ad=0.12p pd=1.24u as=0.44p ps=2.88u w=1u l=0.5u
X182 pin.t126 swmatrix_Tgate_0.gf180mcu_fd_sc_mcu9t5v0__inv_1_0.ZN.t3 BUS[7].t15 vdd.t304 pfet_03v3 ad=2.6p pd=9.3u as=1.04p ps=4.52u w=4u l=0.28u
X183 a_19196_1580# a_18728_1562# vdd.t160 vdd.t159 pfet_05v0 ad=0.44p pd=2.88u as=0.476p ps=2.18u w=1u l=0.5u
X184 a_7476_1577# a_6248_1562# a_7232_2122# vss.t248 nfet_05v0 ad=0.263p pd=1.49u as=0.182p ps=1.22u w=0.7u l=0.6u
X185 BUS[5].t10 swmatrix_Tgate_5.gf180mcu_fd_sc_mcu9t5v0__inv_1_0.ZN.t8 pin.t34 vdd.t82 pfet_03v3 ad=1.04p pd=4.52u as=1.04p ps=4.52u w=4u l=0.28u
X186 a_37916_1580# a_37448_1562# vss.t228 vss.t227 nfet_05v0 ad=0.308p pd=2.28u as=0.263p ps=1.49u w=0.7u l=0.6u
X187 pin.t211 swmatrix_Tgate_1.gated_control BUS[9].t19 vss.t376 nfet_03v3 ad=2.44p pd=9.22u as=1.04p ps=4.52u w=4u l=0.28u
X188 a_15788_2122# ShiftReg_row_10_2$1_0.DFF_2phase_1_7.gf180mcu_fd_sc_mcu9t5v0__latq_1_0.D vdd.t471 vdd.t470 pfet_05v0 ad=0.12p pd=1.24u as=0.44p ps=2.88u w=1u l=0.5u
X189 a_1336_2002# a_992_2122# vdd.t130 vdd.t129 pfet_05v0 ad=0.6072p pd=3.64u as=0.3588p ps=1.9u w=1.38u l=0.5u
X190 BUS[9].t0 swmatrix_Tgate_1.gf180mcu_fd_sc_mcu9t5v0__inv_1_0.ZN.t6 pin.t78 vdd.t202 pfet_03v3 ad=1.04p pd=4.52u as=1.04p ps=4.52u w=4u l=0.28u
X191 BUS[6].t11 swmatrix_Tgate_6.gf180mcu_fd_sc_mcu9t5v0__inv_1_0.ZN.t7 pin.t23 vdd.t49 pfet_03v3 ad=1.04p pd=4.52u as=1.04p ps=4.52u w=4u l=0.28u
X192 BUS[4].t12 swmatrix_Tgate_7.gf180mcu_fd_sc_mcu9t5v0__inv_1_0.ZN.t6 pin.t131 vdd.t311 pfet_03v3 ad=1.04p pd=4.52u as=1.04p ps=4.52u w=4u l=0.28u
X193 swmatrix_Tgate_0.gated_control ShiftReg_row_10_2$1_0.DFF_2phase_1_3.gf180mcu_fd_sc_mcu9t5v0__inv_1$1_0.I vss.t398 vss.t397 nfet_05v0 ad=0.5808p pd=3.52u as=0.5808p ps=3.52u w=1.32u l=0.6u
X194 BUS[4].t22 swmatrix_Tgate_7.gated_control pin.t205 vss.t369 nfet_03v3 ad=1.04p pd=4.52u as=1.04p ps=4.52u w=4u l=0.28u
X195 vss.t270 a_53376_2122# ShiftReg_row_10_2$1_0.Q[9] vss.t269 nfet_05v0 ad=0.5808p pd=3.52u as=0.5808p ps=3.52u w=1.32u l=0.6u
X196 pin.t4 swmatrix_Tgate_8.gf180mcu_fd_sc_mcu9t5v0__inv_1_0.ZN.t8 BUS[2].t10 vdd.t4 pfet_03v3 ad=1.04p pd=4.52u as=1.04p ps=4.52u w=4u l=0.28u
X197 a_42361_1539# ShiftReg_row_10_2$1_0.Q[7] vss.t272 vss.t271 nfet_05v0 ad=0.2112p pd=1.64u as=0.5808p ps=3.52u w=1.32u l=0.6u
X198 swmatrix_Tgate_4.gated_control ShiftReg_row_10_2$1_0.DFF_2phase_1_7.gf180mcu_fd_sc_mcu9t5v0__inv_1$1_0.I vdd.t120 vdd.t119 pfet_05v0 ad=0.8052p pd=4.54u as=0.8052p ps=4.54u w=1.83u l=0.5u
X199 BUS[5].t21 swmatrix_Tgate_5.gated_control pin.t59 vss.t115 nfet_03v3 ad=1.04p pd=4.52u as=1.04p ps=4.52u w=4u l=0.28u
X200 pin.t104 swmatrix_Tgate_3.gf180mcu_fd_sc_mcu9t5v0__inv_1_0.ZN.t8 BUS[8].t13 vdd.t261 pfet_03v3 ad=1.04p pd=4.52u as=1.04p ps=4.52u w=4u l=0.28u
X201 pin.t24 swmatrix_Tgate_6.gf180mcu_fd_sc_mcu9t5v0__inv_1_0.ZN.t8 BUS[6].t10 vdd.t50 pfet_03v3 ad=1.04p pd=4.52u as=1.04p ps=4.52u w=4u l=0.28u
X202 vdd.t481 a_34656_2122# ShiftReg_row_10_2$1_0.Q[6] vdd.t480 pfet_05v0 ad=0.8052p pd=4.54u as=0.8052p ps=4.54u w=1.83u l=0.5u
X203 vdd.t222 a_7576_2002# a_7436_2122# vdd.t221 pfet_05v0 ad=0.3588p pd=1.9u as=0.426p ps=2.08u w=1.38u l=0.5u
X204 ShiftReg_row_10_2$1_0.DFF_2phase_1_6.gf180mcu_fd_sc_mcu9t5v0__inv_1$1_0.I ShiftReg_row_10_2$1_0.Q[4] vdd.t268 vdd.t267 pfet_05v0 ad=0.4277p pd=2.165u as=0.7238p ps=4.17u w=1.645u l=0.5u
X205 BUS[1].t15 swmatrix_Tgate_9.gated_control pin.t198 vss.t340 nfet_03v3 ad=1.04p pd=4.52u as=2.44p ps=9.22u w=4u l=0.28u
X206 a_9940_1577# a_8712_1562# a_9696_2122# vss.t303 nfet_05v0 ad=0.263p pd=1.49u as=0.182p ps=1.22u w=0.7u l=0.6u
X207 pin.t215 swmatrix_Tgate_0.gated_control BUS[7].t20 vss.t390 nfet_03v3 ad=1.04p pd=4.52u as=1.04p ps=4.52u w=4u l=0.28u
X208 BUS[10].t20 swmatrix_Tgate_2.gf180mcu_fd_sc_mcu9t5v0__inv_1_0.ZN.t7 pin.t163 vdd.t360 pfet_03v3 ad=1.04p pd=4.52u as=1.04p ps=4.52u w=4u l=0.28u
X209 pin.t61 swmatrix_Tgate_5.gated_control BUS[5].t20 vss.t114 nfet_03v3 ad=2.44p pd=9.22u as=1.04p ps=4.52u w=4u l=0.28u
X210 vdd.t20 enable.t6 ShiftReg_row_10_2$1_0.DFF_2phase_1_4.gf180mcu_fd_sc_mcu9t5v0__inv_1$1_0.I vdd.t19 pfet_05v0 ad=0.7238p pd=4.17u as=0.4277p ps=2.165u w=1.645u l=0.5u
X211 BUS[8].t14 swmatrix_Tgate_3.gf180mcu_fd_sc_mcu9t5v0__inv_1_0.ZN.t9 pin.t105 vdd.t262 pfet_03v3 ad=1.04p pd=4.52u as=1.04p ps=4.52u w=4u l=0.28u
X212 vss.t186 a_7232_2122# ShiftReg_row_10_2$1_0.DFF_2phase_1_9.gf180mcu_fd_sc_mcu9t5v0__latq_1_0.D vss.t185 nfet_05v0 ad=0.5808p pd=3.52u as=0.5808p ps=3.52u w=1.32u l=0.6u
X213 ShiftReg_row_10_2$1_0.DFF_2phase_1_0.gf180mcu_fd_sc_mcu9t5v0__inv_1$1_0.I d_out.t3 vdd.t341 vdd.t340 pfet_05v0 ad=0.4277p pd=2.165u as=0.7238p ps=4.17u w=1.645u l=0.5u
X214 a_44672_2122# a_44156_1580# a_44524_1577# vss.t45 nfet_05v0 ad=0.182p pd=1.22u as=83.99999f ps=0.94u w=0.7u l=0.6u
X215 vss.t396 a_20056_2002# a_19956_1577# vss.t395 nfet_05v0 ad=0.2054p pd=1.31u as=0.263p ps=1.49u w=0.79u l=0.6u
X216 a_28416_2122# a_27432_1562# a_28268_2122# vdd.t133 pfet_05v0 ad=0.26p pd=1.52u as=0.12p ps=1.24u w=1u l=0.5u